50
Coordinates from ORCA-job surface_scan
  C   -7.38369006641706     -0.66356246997936     -0.15690159476526
  C   -6.00994545776927     -0.90971762946066     -0.59234807459997
  C   -4.84294343985996     -0.64023119974796     -0.07131620886627
  C   -4.84413726599480      0.06415502560218      1.26896314133480
  C   -6.18352905862692      0.75019512597419      1.52638957560222
  H   -4.04237888104413      0.80467505497364      1.26660518960196
  H   -4.62929081424759     -0.66342208785556      2.05963557928672
  C   -7.33836164428031     -0.22472457031185      1.31316048624208
  H   -6.28624859746304      1.58137844630614      0.82846550311407
  H   -6.20683500979920      1.14602007011666      2.54535228630693
  H   -8.28657982641258      0.24192837839200      1.58630286763884
  H   -7.19495357714281     -1.10019491265801      1.95210670197504
  H   -7.98880007228319     -1.56235790689383     -0.28528745206099
  H   -7.82000565574024      0.11253646024918     -0.78983623840714
  C   -3.52284893333765     -0.95347562803411     -0.69102525753313
  H   -3.68632723521918     -1.53769907417840     -1.59060514839016
  H   -2.89471080815267     -1.51034569557025      0.00505126344270
  H   -3.01472882920523     -0.02722383047222     -0.95543425385099
  O   -5.99240733427925     -1.63914684538996     -2.33118211118975
  S   -6.66166080835777     -0.40513160680713     -3.23914345879454
  O   -6.90762066390442      1.44315073018345     -4.55654241723757
  O   -8.07537007890397     -0.77065494910810     -3.41317609906820
  C   -5.81169867492423     -1.10409139233340     -4.72766253352301
  H   -4.80780581038150     -0.69973959611836     -4.72898321327710
  H   -6.35944216942202     -0.77731218839274     -5.60040937817513
  H   -5.80199724340932     -2.18385901234065     -4.64352296991962
  C   -6.26801010820599      4.52427011316031     -1.92272651109923
  B   -4.89493322321480      2.27167121619869     -2.72758591964797
  H   -4.50378265065764      1.17842753855970     -2.49604159670390
  B   -7.11812435214998      3.99417536126247     -3.30202176441398
  H   -8.29441116365378      4.16823426791215     -3.33668693203632
  B   -4.69652000895895      5.09066849776917     -2.25547841834306
  H   -4.28205683920511      5.99359124705383     -1.60296966119899
  B   -6.45398566736664      2.84930506817801     -2.12522074098299
  H   -7.20836915834135      2.28542711304880     -1.40010271322703
  B   -6.02986255762472      5.38381198032879     -3.37607155556168
  H   -6.48998377757862      6.47689569148072     -3.45376109682146
  B   -5.97699347176365      4.16130301234424     -4.64788648317379
  H   -6.34954463393338      4.39188751947900     -5.75185465159636
  B   -3.79861829390298      3.66932103158893     -2.81049606218503
  H   -2.62795524057627      3.56621445461619     -2.62581183674792
  B   -4.46557028583416      4.83470676267391     -3.99026257289803
  H   -3.76414987282586      5.54783953151490     -4.63294250953398
  B   -4.95785401357676      3.52348469050737     -1.48407961601971
  H   -4.71437210173827      3.40283937101236     -0.32519381204648
  B   -6.24005176787769      2.56688157101825     -3.86939461345544
  B   -4.59597492888037      3.08285440382240     -4.29290163662969
  H   -3.97836218345703      2.55579614156267     -5.15901668633117
  H   -7.85674884341671      1.48615206398521     -4.46484511572717
  H   -6.83107591804623      5.01035274212443     -1.13009239570208
