50
Coordinates from ORCA-job surface_scan
  C   -7.38161858854380     -0.66711536834895     -0.15272671355596
  C   -6.00561363054192     -0.90605751340645     -0.57415626718035
  C   -4.83867304521167     -0.62684762775627     -0.06320732500455
  C   -4.84567160404353      0.09023505916664      1.27209778598804
  C   -6.19051620450943      0.76872035285090      1.52156432347327
  H   -4.04959061351954      0.83662453834656      1.26216161270373
  H   -4.62579257823816     -0.62928173895970      2.06855804193630
  C   -7.34032590930073     -0.21368066239896      1.31468052747034
  H   -6.29689833662731      1.59392413782415      0.81709815336700
  H   -6.21805229177653      1.17220765925940      2.53739998462596
  H   -8.29128018560399      0.25110550825878      1.58105003114156
  H   -7.19438315049252     -1.08296568947894      1.96139754261765
  H   -7.98093153513282     -1.57085163176077     -0.27225277875464
  H   -7.82024899132383      0.10012476462601     -0.79460753819209
  C   -3.51832045635662     -0.93754994069960     -0.68238963682905
  H   -3.68196794715993     -1.52817288204930     -1.57782287531558
  H   -2.88605674133976     -1.48649092976239      0.01613840627351
  H   -3.01607722315059     -0.01029712631389     -0.95418219973861
  O   -5.97993965573781     -1.65750239829930     -2.36562642180449
  S   -6.65421274045500     -0.42478023715142     -3.25144343512379
  O   -6.90771486580653      1.44427295546140     -4.56026854197930
  O   -8.07343437337304     -0.77885545975428     -3.41018765052681
  C   -5.82763599060510     -1.11576046645918     -4.75977194104545
  H   -4.81843082900283     -0.72482628162320     -4.76497947677077
  H   -6.38014476181102     -0.76761217251206     -5.62120705054623
  H   -5.83161544952478     -2.19681990867942     -4.69266558506952
  C   -6.26380533628509      4.51303003789292     -1.91388335113738
  B   -4.89261132485141      2.26317219537073     -2.73041707977763
  H   -4.50154884856900      1.16888334865252     -2.50417543255470
  B   -7.11586894049552      3.98935538701501     -3.29457915622911
  H   -8.29215073556568      4.16429302758159     -3.32685910830424
  B   -4.69244392945172      5.08001970800755     -2.24590302752442
  H   -4.27676727057688      5.97989312641592     -1.58973167036830
  B   -6.45083327326767      2.83907422316784     -2.12372208773944
  H   -7.20506676691735      2.27284731777603     -1.40000816929512
  B   -6.02695399322279      5.37885096381239     -3.36363869530734
  H   -6.48664600554307      6.47259855350693     -3.43578469292593
  B   -5.97633332927056      4.16200565621654     -4.64097772000107
  H   -6.34999447836760      4.39800083481694     -5.74346967046621
  B   -3.79593732205722      3.66077548183633     -2.80830402946975
  H   -2.62497218643717      3.55636732169692     -2.62534077450686
  B   -4.46374914884411      4.83173109548221     -3.98206623162763
  H   -3.76265954528614      5.54750202245690     -4.62235064423869
  B   -4.95366107676249      3.50955373492813     -1.48125278684614
  H   -4.70918143123430      3.38370326909910     -0.32283179732482
  B   -6.23919602236521      2.56377209307634     -3.86946338410053
  B   -4.59536522336477      3.08131526525717     -4.29254051553699
  H   -3.97883453040781      2.55802134478628     -5.16171761399347
  H   -7.85619292840143      1.48483950941778     -4.46204101520815
  H   -6.82570767263143      4.99590762869755     -1.11838103487312
