50
Coordinates from ORCA-job surface_scan
  C   -7.38016465835021     -0.67267894823328     -0.14754655006840
  C   -6.00143777631135     -0.90152416911310     -0.55521207438896
  C   -4.83558181860626     -0.60951663540758     -0.05386763519477
  C   -4.85047174965741      0.12018335125164      1.27641785109580
  C   -6.20192767053495      0.78871961333264      1.51719088537873
  H   -4.06140774361398      0.87369638029270      1.25922944369733
  H   -4.62485319036532     -0.59075524116145      2.07877798126179
  C   -7.34480379523404     -0.20320748115372      1.31665167687226
  H   -6.31307706061073      1.60734710400413      0.80580963560702
  H   -6.23481764017978      1.20023313794397      2.52963690900302
  H   -8.29947748018617      0.25828196701053      1.57504657390291
  H   -7.19549068465454     -1.06537153013243      1.97201956445385
  H   -7.97141671240755     -1.58285187719990     -0.25725872701110
  H   -7.82287169792077      0.08373758460676     -0.79924947548095
  C   -3.51370006470215     -0.91494473108442     -0.67118328987025
  H   -3.67503074504053     -1.51027258511910     -1.56400581830499
  H   -2.87805317383381     -1.45696686385454      0.02962800828871
  H   -3.01771812827394      0.01428409973536     -0.94739648737781
  O   -5.96563489684977     -1.67248234165836     -2.40029788664123
  S   -6.64520571652274     -0.44380282964940     -3.26463513091661
  O   -6.90844448533081      1.44687710891233     -4.56803081462226
  O   -8.07020387587890     -0.78560586394989     -3.40560155509500
  C   -5.84500208312602     -1.12911753615552     -4.79309645246960
  H   -4.82831176044691     -0.75817927222924     -4.80073748397630
  H   -6.39910328475870     -0.75392790363250     -5.64204463211594
  H   -5.87023345270697     -2.21089401877754     -4.74476154231442
  C   -6.25621555901346      4.49751467153699     -1.90306520051292
  B   -4.88794612726046      2.25279891616202     -2.73855659938038
  H   -4.49606508301762      1.15716144867080     -2.52080634736988
  B   -7.11236391960202      3.98322888769079     -3.28487441297910
  H   -8.28872688608149      4.15904688416970     -3.31206484920923
  B   -4.68560418708907      5.06638146369376     -2.23573456634010
  H   -4.26778432019162      5.96168528518878     -1.57447360586581
  B   -6.44430067416649      2.82501514539476     -2.12381459798515
  H   -7.19687322889246      2.25461595267443     -1.40139963630831
  B   -6.02323999094433      5.37304230592627     -3.34752471239158
  H   -6.48295242868124      6.46744230729821     -3.41073512664626
  B   -5.97685830191156      4.16486209344765     -4.63313389838283
  H   -6.35348788227231      4.40876083961919     -5.73294227488270
  B   -3.79130193241818      3.65064119675335     -2.81031187817473
  H   -2.61971747453301      3.54460476983787     -2.63132150139545
  B   -4.46214999233088      4.82961797383863     -3.97416200878496
  H   -3.76257664659295      5.54948185764332     -4.61168934059394
  B   -4.94508429334826      3.49090871734386     -1.48106094690579
  H   -4.69732407934265      3.35753180920678     -0.32385458799558
  B   -6.23834812962672      2.56039387109320     -3.87221731484595
  B   -4.59551639712999      3.08123902008512     -4.29609650409545
  H   -3.98128341567610      2.56383242865990     -5.17044986608829
  H   -7.85570211337284      1.48108336294044     -4.45734751265654
  H   -6.81576460976521      4.97510835989349     -1.10263440111879
