50
Coordinates from ORCA-job ./surface_scan.001
  C   -7.11328074933114     -0.34648077963288     -0.21289218554665
  C   -5.99421631908891     -1.17400014852516     -0.82216652621296
  C   -4.76614892101392     -1.19704857206597     -0.25623600264380
  C   -4.42822987531932     -0.42362933685291      0.98269546810263
  C   -5.44393208090803      0.65034555317483      1.32857763288179
  H   -3.44130576243034      0.03596892325294      0.84264997597334
  H   -4.30777576278987     -1.11521248914891      1.83256312545911
  C   -6.84774025058219      0.08711091172385      1.21585625220173
  H   -5.33902651308710      1.48896494739134      0.63318858726504
  H   -5.25649878483587      1.03997572203997      2.33429677980954
  H   -7.59207294768218      0.82726237207595      1.52466900448233
  H   -6.95042973868255     -0.77315099417602      1.88955180401841
  H   -8.03285786720353     -0.94091578476964     -0.27764392937982
  H   -7.27664660701730      0.53841032995936     -0.83935895806686
  C   -3.65812362610257     -2.02331430208674     -0.82399297874941
  H   -3.98546728112115     -2.61730865809843     -1.67738994955997
  H   -3.25347298701971     -2.70995422731458     -0.06900849709280
  H   -2.82231106084441     -1.39090863632760     -1.14728283658851
  O   -6.25776345148989     -1.82407666281791     -1.79579039284315
  S   -7.00003151664217     -1.08036616364079     -3.18048092116777
  O   -7.10445941614319      1.66868691481157     -4.59614311447059
  O   -7.66110864298967     -2.19301014275949     -3.85649211707858
  C   -5.44805146205555     -0.83189792858756     -4.01739448787431
  H   -4.81457246040017     -0.19776815026127     -3.39614106506425
  H   -5.67715626265918     -0.30652668609059     -4.94354976735854
  H   -5.00930762551641     -1.81480266571009     -4.18895850631281
  C   -6.70391486644596      4.98140106796655     -2.29232441079992
  B   -5.53691447902693      2.51878934710963     -2.40671983068294
  H   -5.38776091347376      1.43989291645604     -1.92493761606209
  B   -7.25305494312105      4.35342247471085     -3.76255571956301
  H   -8.34386598564003      4.63135495878416     -4.15668222651621
  B   -5.04412332027952      5.32829055028295     -2.23819857323084
  H   -4.67027062278137      6.26842184775841     -1.61231973330532
  B   -7.09145398410112      3.33845981033076     -2.32215679923715
  H   -8.07253890303658      2.94890539958496     -1.76936389584126
  B   -5.98814530913871      5.58745396805386     -3.70957260449700
  H   -6.24343147821322      6.69783219567263     -4.05376346957407
  B   -5.79704227957209      4.17707693112250     -4.74480387735443
  H   -5.85682685022368      4.26142815213100     -5.93320069618411
  B   -4.26183425468411      3.74690732284161     -2.35390196203856
  H   -3.20820865948616      3.54387533548321     -1.83321941800078
  B   -4.42485175642350      4.77592178216906     -3.79748714553664
  H   -3.48537315672279      5.30635478060915     -4.30541159900646
  B   -5.72344503731654      3.94104850389860     -1.38375913930783
  H   -5.79829890467835      3.96149472960602     -0.19584093921385
  B   -6.49458629733102      2.75561246053998     -3.90120310085786
  B   -4.73563909101891      3.02917749647573     -3.90730871951966
  H   -4.01163829492124      2.29255656224191     -4.50758365573182
  H   -8.00867878261522      1.88446688454252     -4.82390183054376
  H   -7.36774287615617      5.64076126341186     -1.75169814877413
