50
Coordinates from ORCA-job ./surface_scan.004
  C   -6.72203355506506     -0.03471062246679     -0.18220310431811
  C   -5.64763997480345     -0.98430460576456     -0.64043070137590
  C   -4.77935494952154     -1.56406085387688      0.19249315057195
  C   -4.80976149514435     -1.31957074330742      1.67865814991971
  C   -5.60526118407848     -0.06986170500087      2.03746305240108
  H   -3.78227942519770     -1.22645728702380      2.04496463456490
  H   -5.24995944005657     -2.19010605981453      2.18282503123824
  C   -6.94971038417098     -0.11102283653723      1.32342129614298
  H   -5.05812101567371      0.81609265590688      1.71176647997204
  H   -5.74250443737249     -0.00976880476015      3.12114478163343
  H   -7.58121574756224      0.72058190897480      1.64409115204944
  H   -7.46186366321976     -1.04275596063243      1.57584083751764
  H   -7.63968533772957     -0.26964224358791     -0.72574506379059
  H   -6.42502629596816      0.97954256380672     -0.46349527558675
  C   -3.72352254546831     -2.51859511461371     -0.28885449744639
  H   -3.82328790796246     -2.65652464935194     -1.36065676898845
  H   -3.82288510171898     -3.48687526965531      0.20626419924361
  H   -2.72588158736028     -2.13204087018438     -0.07276369540452
  O   -5.58767319810798     -1.23281776045167     -1.98782133554815
  S   -6.46371062150575     -0.11027331823898     -3.05152137969903
  O   -6.95175829085474      1.49063644925735     -4.41894750133785
  O   -7.73062741111947     -0.79885337498653     -3.28995966702234
  C   -5.35429933040765     -0.67381927535562     -4.40454057674776
  H   -4.47968954805535     -0.03814223208338     -4.37630912967917
  H   -5.88239726750740     -0.55682621146500     -5.34029497777564
  H   -5.09746885172050     -1.70796095620467     -4.22017026923345
  C   -6.70693450320610      5.06480489070780     -2.41873018471888
  B   -5.12403765431330      2.81627300495925     -2.66598503060991
  H   -4.67215692078006      1.82596151552026     -2.19153773712910
  B   -7.41584581586293      4.20759746631332     -3.70752221312444
  H   -8.59472902068151      4.26695092095486     -3.84804671169757
  B   -5.15842614339244      5.68019323360734     -2.76900121616631
  H   -4.85553123870375      6.72475985989906     -2.29292750635639
  B   -6.76232315103402      3.37302475418173     -2.28455998521892
  H   -7.52726018941083      2.89648441276830     -1.51166334392929
  B   -6.42310027050584      5.63670903044318     -4.00133516344457
  H   -6.94847357751711      6.65045086310936     -4.32704625661495
  B   -6.19108417609301      4.19541320856814     -4.99298806556479
  H   -6.49883986933257      4.16485880546226     -6.13881501979036
  B   -4.12451004540566      4.25678361981542     -2.97082297186217
  H   -2.96806282284502      4.29086645309436     -2.70382661717445
  B   -4.78254213826931      5.10627504824978     -4.39971258893300
  H   -4.08775140762902      5.73307299490603     -5.13122346643985
  B   -5.36628565014558      4.28185996613833     -1.71019193049694
  H   -5.20094333878204      4.41201131665498     -0.54205930302258
  B   -6.39702527428409      2.78347233999337     -3.91874981096092
  B   -4.76652505686975      3.32532764510914     -4.34569603551046
  H   -4.05716130051783      2.68781942018591     -5.05189695805125
  H   -7.90717111711028      1.48368769548427     -4.40020898664254
  H   -7.35728976932042      5.65073879863899     -1.77546043503818
