50
Coordinates from ORCA-job surface_scan
  C   -6.75229302382164     -0.05235167517454     -0.19919300469402
  C   -5.65770365220384     -0.97868083141358     -0.63404854491577
  C   -4.76535452011316     -1.52962675465766      0.18615656437383
  C   -4.78948811480659     -1.26041666395466      1.66854293034188
  C   -5.61514498576681     -0.02532425040584      2.01155577556678
  H   -3.76211955243478     -1.13418677725240      2.02408731194583
  H   -5.20282198603652     -2.13403996885273      2.18891942021248
  C   -6.96487878877562     -0.11003538384958      1.31032004331271
  H   -5.09288868724984      0.86815149169508      1.66632442279378
  H   -5.74504891295390      0.04969790224640      3.09511156580951
  H   -7.61236189726713      0.71173412655436      1.62354843362123
  H   -7.45286671518969     -1.04923468156525      1.58218916060103
  H   -7.66584161185085     -0.32141401004135     -0.73317497557799
  H   -6.48405123325649      0.96411440075477     -0.50022732316838
  C   -3.69216049867691     -2.46236791281874     -0.29500698728491
  H   -3.80388419372490     -2.61755666343970     -1.36304358146347
  H   -3.75991360395428     -3.42454189873272      0.21636170157683
  H   -2.70343737168692     -2.04505408103575     -0.09779595214710
  O   -5.59809339942618     -1.26043863796191     -2.03328958157305
  S   -6.47327692794043     -0.13399558348005     -3.06854718688077
  O   -6.96331425109193      1.49242630280680     -4.42556285676069
  O   -7.75263914805959     -0.80526231096763     -3.29709746969471
  C   -5.38895795974196     -0.69810161218388     -4.44236128289283
  H   -4.50633772215479     -0.07325535669845     -4.41946774993005
  H   -5.92840431117403     -0.56525156146437     -5.36948497307604
  H   -5.14215665565394     -1.73722173430229     -4.27150972693175
  C   -6.69749480127414      5.05110850742156     -2.40059860249723
  B   -5.13408588204596      2.78938164246188     -2.65114814488640
  H   -4.69297912832752      1.79302899996508     -2.17917264179366
  B   -7.40597079512719      4.20840524057156     -3.69934051062035
  H   -8.58347606391925      4.28059422859156     -3.84633973354126
  B   -5.14099950993042      5.65423597372688     -2.73690684480239
  H   -4.83148231729938      6.69304655116836     -2.25214233817221
  B   -6.76957880308534      3.35894144661007     -2.27755823819566
  H   -7.54463243624634      2.88664283654701     -1.51157120882969
  B   -6.39791111314749      5.63017983488378     -3.97750487044400
  H   -6.91195120378023      6.65089362006959     -4.30008822544758
  B   -6.17335564992282      4.19288727897745     -4.97654561938065
  H   -6.47366445357293      4.17286760562401     -6.12464755048256
  B   -4.11952511212041      4.22230171621044     -2.94095806967227
  H   -2.96437455393675      4.24364936091224     -2.66627670051298
  B   -4.76016920365697      5.08650786330930     -4.36864011837226
  H   -4.05452607245475      5.71104079997972     -5.09191739738041
  B   -5.36895366928256      4.25146360381955     -1.68828325292686
  H   -5.21047301651950      4.37272449213049     -0.51792649627090
  B   -6.40034660651335      2.77448877368149     -3.91314357290829
  B   -4.76199367873317      3.30478587731782     -4.32548372517425
  H   -4.05335638153173      2.66544760093245     -5.03093642981410
  H   -7.91816781259772      1.48588606578670     -4.39314125926886
  H   -7.34672102932679      5.63898429284411     -1.75782329896644
