26
Coordinates from ORCA-job surface_scan
  C   -5.96587374088194     -0.50837052143126      0.73674350219423
  C   -4.57138722018152      0.03260531020345      0.62400216166262
  C   -3.52009241969446     -0.64190244685423      0.16817914716307
  C   -3.65601518964096     -2.07526840671401     -0.27296651996468
  C   -4.95700199560575     -2.71805214372518      0.19826679821212
  H   -2.80171639098352     -2.64800107138692      0.09588463443759
  H   -3.61077746880224     -2.09730281140827     -1.36661478165441
  C   -6.12791244925140     -1.78408430746480     -0.08491925271022
  H   -4.90272052449473     -2.90951366366529      1.27167586047423
  H   -5.10061977630753     -3.67347744456236     -0.30951416030822
  H   -7.07497817634369     -2.26597782501864      0.16316389182606
  H   -6.14295949378578     -1.52819633261054     -1.14593724381847
  H   -6.65582569698491      0.26955778651449      0.39787666952924
  H   -6.18781586817183     -0.70327341768770      1.79203497426564
  C   -2.14940420243936     -0.04555912746648      0.04475460908284
  H   -2.11041305450389      0.93218595900191      0.51521916202801
  H   -1.88038660798400      0.05209815296809     -1.00715251029653
  H   -1.41408331311613     -0.69402176365228      0.51921421131917
  O   -6.22096041781901      3.08679668719706      0.94184983825529
  S   -5.14047027816545      2.51151292321319      0.18826898432226
  O   -5.45390057594610      2.00660785187266     -1.12020396884461
  O   -4.43557052681334      1.35845257801326      1.06012797484924
  C   -3.79129436069270      3.69275308796271      0.10005739159197
  H   -4.19435524294643      4.62085931356256     -0.28281034032229
  H   -3.04320180308823      3.28669987314893     -0.56613087527287
  H   -3.41306320535488      3.81958175998974      1.10476984197874
