26
Coordinates from ORCA-job surface_scan
  C   -5.99486086122926     -0.45622579273773      0.60924725636349
  C   -4.62142446991593      0.10785871009767      0.82900552405978
  C   -3.48798821435183     -0.48279375485149      0.45386858157363
  C   -3.50091625500285     -1.81088675900037     -0.25594460682451
  C   -4.83943770803538     -2.53295289862705     -0.13572324526621
  H   -2.70133016552837     -2.43740778105167      0.14545639467057
  H   -3.27046096628009     -1.63698971883279     -1.31225317547362
  C   -5.97748589028112     -1.56551779970715     -0.43964155063366
  H   -4.95762897938096     -2.91693128033285      0.87903423467108
  H   -4.86418393795152     -3.38022551072092     -0.82322424182523
  H   -6.93581974955498     -2.08673100368875     -0.43646808031873
  H   -5.83312803006927     -1.13351307071677     -1.43194921124760
  H   -6.66298455846140      0.35617782868407      0.31683713813249
  H   -6.36678047417393     -0.84758336176990      1.56237344139433
  C   -2.13227061299182      0.11139814439037      0.69625533577470
  H   -2.21127234921087      1.05279293335773      1.23262231289232
  H   -1.61514483918603      0.27207235265374     -0.24957094692020
  H   -1.52935165116042     -0.57480274766809      1.29005313702311
  O   -4.73917849808711      3.71729924616916      1.69733217748624
  S   -5.10749395605662      2.65412054440706      0.81044664000259
  O   -6.50156029752550      2.53768343046337      0.47192046665618
  O   -4.57780838337965      1.32769439375272      1.51862335878955
  C   -4.14914405533986      2.75548406184998     -0.70772214624623
  H   -4.53574463651369      3.60307929002024     -1.25690450960374
  H   -4.29548945534625      1.83759852993005     -1.26028004744169
  H   -3.11391100498504      2.90601201392948     -0.43755423768862
