76
Coordinates from ORCA-job surface_scan
  C   -6.39894452623075     -0.11070121460512     -0.55048163483554
  C   -4.93956546275790     -0.23512375184081     -0.31222856475941
  C   -4.21933052494061     -1.34017847740807     -0.21415155390368
  C   -4.90665451686451     -2.67655025588444     -0.31101534632902
  C   -6.41114082975741     -2.57031878311083     -0.08479977562090
  H   -4.45722957155113     -3.35953044343491      0.41293761458958
  H   -4.71737702496017     -3.08936254555022     -1.30553807541748
  C   -6.97666384917332     -1.46533573936631     -0.96766947760917
  H   -6.61756003608074     -2.34191433088098      0.96239807618255
  H   -6.88463272299498     -3.52288116889331     -0.32586334483368
  H   -8.06435461755156     -1.43024452451925     -0.89791062371226
  H   -6.71029411597649     -1.67145203587515     -2.00466943164013
  H   -6.56900631352473      0.62154213364597     -1.34178186925975
  H   -6.88803469117410      0.24690898543142      0.36105591105780
  C   -2.73660637279195     -1.37014487648284     -0.03109521139992
  H   -2.32991904795808     -0.36569282144753     -0.07924876363114
  H   -2.28516478661128     -1.97893737353728     -0.81323060786218
  H   -2.47604835755560     -1.80889498943305      0.93096274110851
  O   -4.20073445287370      1.10476176837467     -0.11412816248137
  S   -4.47787794410219      2.34486874834406     -1.03640120571042
  O   -4.90126256464213      1.92918130062067     -2.34676967695099
  O   -3.28347412834713      3.13193762418897     -0.97249448799972
  C   -5.80174527829788      3.23794901237166     -0.23886391595724
  H   -6.73743556299119      2.73879541845305     -0.44379512463454
  H   -5.79847652583014      4.23704313689303     -0.65374607712038
  H   -5.59110968792125      3.26506264070516      0.82096197912538
  Cl  1.01068735605617      1.20451026782711     -0.12628974664505
  C   0.96969951352570     -0.50726321414468      0.34125262880353
  Cl  0.14765659700581     -0.71929211438950      1.89472909836615
  H   1.99439439162048     -0.85894573370368      0.44930374878904
  H   0.42066237586217     -1.06151092434033     -0.41976690838309
  Cl  -4.41491575192070     -0.55725588935374     -3.48289414589661
  C   -3.84428188911608     -2.00734624799362     -4.36516110782089
  Cl  -4.87572235254223     -3.40018430595303     -4.03684199639143
  H   -2.83641803749629     -2.24748675804140     -4.02865132438098
  H   -3.88001507555078     -1.80225822364596     -5.43376749773836
  Cl  -0.50825089018379     -1.26127503316001     -2.95661911536710
  C   -0.61026363674060      0.43964616748015     -3.38362125757934
  Cl  -1.79182461020207      1.30941774742388     -2.34068206168587
  H   -0.94272597471148      0.50021624109113     -4.41996712158379
  H   0.37702086279434      0.87578627688313     -3.23943613424737
  Cl  -2.52362861015249      3.82241952296735     -4.78245436678848
  C   -3.72392322968215      2.58000776499372     -5.16834983599705
  Cl  -2.97663707135848      1.22831871899332     -6.01488482210846
  H   -4.47096571556093      3.01455146973138     -5.83120565823029
  H   -4.16146040160803      2.21901772809465     -4.23444325250610
  Cl  -5.93585160554119      6.17018315232759      1.94137733666752
  C   -4.17570654877269      6.13245350821536      2.07352132521979
  Cl  -3.43122056766189      5.65854943716718      0.52296204942856
  H   -3.91079450120643      5.39063371585547      2.82633557243470
  H   -3.83355983563086      7.13102587138004      2.33834004896257
  Cl  -11.38860295165226     -0.21775450874663      2.50913273233165
  C   -10.09860045719391     -1.13272590593255      1.71268390413211
  Cl  -8.59571162206145     -1.05081254534331      2.64795504965799
  H   -9.92026362773070     -0.68491941701007      0.73594129213234
  H   -10.40689067291119     -2.17466507465120      1.64483619840939
  Cl  -6.32734708088549      1.43031998607046      2.79780665279223
  C   -5.82141056704733      2.00157456250604      4.38084356015862
  Cl  -6.00531574621469      3.75853523981998      4.49711627218138
  H   -4.76806477303416      1.75378142246047      4.50451448830009
  H   -6.45389294218981      1.52898278709143      5.13118023884486
  Cl  -9.35576564743559      1.93218777200763      0.14094565156782
  C   -9.44096221483587      2.60587519614284      1.77083316058421
  Cl  -8.52859168783638      4.12823629916142      1.87082819297411
  H   -8.99334775070594      1.88541335961120      2.45383892292127
  H   -10.48743177342154      2.80124090074528      1.99887997064553
  Cl  -3.02137064975342     -0.45403435912567      3.80960254697254
  C   -4.39079493949390     -1.41771759155463      3.23656330167058
  Cl  -5.69361620318225     -1.46018645939967      4.43297940183483
  H   -4.04795702160407     -2.43907291345479      3.07764900630688
  H   -4.77204500099966     -0.96217311368512      2.32220833608364
  Cl  -0.54248573799500      3.56268666601491      2.30270192492202
  C   -1.75126568441044      2.50692477978924      1.55617538204377
  Cl  -3.31362948960461      2.70884654667612      2.30954053575309
  H   -1.44491277364717      1.47106914634219      1.70013683918279
  H   -1.86566426191756      2.77735064200024      0.50539759187986
