76
Coordinates from ORCA-job surface_scan
  C   -6.40101057913065     -0.10428867665675     -0.54322316495829
  C   -4.93422258883641     -0.20954093234367     -0.30478319708548
  C   -4.22126126075593     -1.32396955299931     -0.21107340062594
  C   -4.90315734175505     -2.66243223321009     -0.30571414633239
  C   -6.40755070223385     -2.56185699000791     -0.07806737688670
  H   -4.45075659720865     -3.34360667679774      0.41837429593608
  H   -4.71395907037388     -3.07736460429178     -1.29938634327239
  C   -6.97429710678389     -1.45878332692790     -0.96197080790239
  H   -6.61379150467169     -2.33165309813564      0.96878552996002
  H   -6.87867596700899     -3.51607183071843     -0.31708009968922
  H   -8.06245310648166     -1.42700405337091     -0.89459166540193
  H   -6.70608535265850     -1.66480104556136     -1.99849797231881
  H   -6.57701904904552      0.62948804245349     -1.33212448930109
  H   -6.89119227961961      0.24987300161454      0.36925965109477
  C   -2.73686915296104     -1.35290809783368     -0.03156343073410
  H   -2.32979075227824     -0.34831059680180     -0.07853862431490
  H   -2.28698675556293     -1.95921085711152     -0.81673295538876
  H   -2.47256329669923     -1.79439889846937      0.92826858956259
  O   -4.22914934286056      1.08381198547721     -0.11124577588585
  S   -4.48264351231238      2.33887310734538     -1.03301789743509
  O   -4.89609107905039      1.93258760588444     -2.34825827289511
  O   -3.27990872542898      3.10955222232656     -0.95005614463747
  C   -5.80451890639720      3.24009750352812     -0.24108622164464
  H   -6.74482610833683      2.75600115821173     -0.46072213649595
  H   -5.78339450501701      4.24327733483932     -0.64577322259661
  H   -5.60516706552443      3.25423690994617      0.82129342270558
  Cl  0.99461253877442      1.21097721845306     -0.12715936065066
  C   0.96497750814780     -0.50142607873282      0.33837473132073
  Cl  0.15475655340543     -0.71923728988208      1.89718836129425
  H   1.99203057944429     -0.84851433691937      0.43853276934492
  H   0.41301998793277     -1.05686668445752     -0.41970925832934
  Cl  -4.40282795755053     -0.56508108310304     -3.47522159411105
  C   -3.83553696790296     -2.01414586299166     -4.36023860135783
  Cl  -4.87788398166902     -3.40208586570021     -4.04451221358090
  H   -2.83130396399488     -2.26155309697352     -4.01818717463176
  H   -3.86306351843432     -1.80352388674470     -5.42802428660242
  Cl  -0.50513145010692     -1.25230986345472     -2.96084354651829
  C   -0.61224005554570      0.44464533506244     -3.40209055674074
  Cl  -1.78515066504941      1.32272794550861     -2.35672333332507
  H   -0.95381154606579      0.49572338147501     -4.43597704880107
  H   0.37585541270369      0.88286110276883     -3.27049275420591
  Cl  -2.55063100859151      3.79963198289063     -4.82233767020353
  C   -3.74443231490979      2.54666334417049     -5.19376003190263
  Cl  -2.99248994088578      1.19471184681532     -6.03593176196349
  H   -4.49789754194373      2.97218640324201     -5.85522484627334
  H   -4.17456014208043      2.18890060470693     -4.25535075553197
  Cl  -5.92460016503493      6.15494495840853      1.95393862172000
  C   -4.16470609892106      6.11748829893483      2.08897337891075
  Cl  -3.41689837922927      5.66076044345197      0.53541833634672
  H   -3.90042545144058      5.36797538307607      2.83435312651109
  H   -3.82369213602481      7.11350188824906      2.36472193624357
  Cl  -11.40617899980370     -0.20951596970074      2.45598188597330
  C   -10.09856360572189     -1.12499835664849      1.68942828854385
  Cl  -8.61561206739871     -1.03972759056888      2.65578447564470
  H   -9.89989094287812     -0.67963126222718      0.71554387714109
  H   -10.40423655636437     -2.16745436124952      1.61764908251683
  Cl  -6.33147349392964      1.43331580067676      2.80558485276997
  C   -5.81828451277281      1.99318963470921      4.39015754374718
  Cl  -5.98387414505549      3.75151094178604      4.51334519058470
  H   -4.76753928024117      1.73378009670443      4.51208558431939
  H   -6.45525594804460      1.52463554990662      5.13922572290757
  Cl  -9.35415710495588      1.94952318188131      0.13235491834895
  C   -9.44168437870980      2.60573654470534      1.76941782883241
  Cl  -8.52480474852745      4.12364992596433      1.88814883713996
  H   -8.99830097638294      1.87669351352391      2.44607862389489
  H   -10.48813166186905      2.80215825430550      1.99673062803132
  Cl  -3.01873793667478     -0.46147197286545      3.80958736176101
  C   -4.38923703827728     -1.42108482858784      3.23168809011126
  Cl  -5.69483754164409     -1.46198369105831      4.42492803431484
  H   -4.04783616300965     -2.44279465427237      3.07241676017708
  H   -4.76617067056271     -0.96264348326625      2.31683009630757
  Cl  -0.56772760658735      3.59739515372203      2.34419521918245
  C   -1.74158235519476      2.51300913394817      1.58308982046429
  Cl  -3.32274691543796      2.69320796336167      2.30271003490870
  H   -1.41924905382590      1.48423640450970      1.74249439920610
  H   -1.83914388216326      2.77238058209665      0.52786223275272
