50
Coordinates from ORCA-job surface_scan
  C   -5.81123350285375      0.93619605682596      1.46796488787612
  C   -5.01395136887890      0.21602371794721      0.48176925433462
  C   -3.78922417642739      0.32065041584346      0.04775889668081
  C   -2.95607664142010      1.42378400550394      0.67410527996155
  C   -3.82984319582862      2.47365687665973      1.35563553268828
  H   -2.35779942699210      1.88421339684348     -0.11364993562232
  H   -2.27286582645266      0.97082645544839      1.39825334714111
  C   -4.84365530145353      1.81118410344803      2.28402782643653
  H   -4.36179427014965      3.04297819833389      0.59182088810184
  H   -3.20009665550541      3.16328626961960      1.92145002599211
  H   -5.41435891755748      2.56334915308391      2.82992814500311
  H   -4.31766114692633      1.18510976672834      3.00683918840033
  H   -6.34469339754009      0.23444379312124      2.11156382972376
  H   -6.56544578034388      1.54039547047792      0.95646272612258
  C   -3.13016201841907     -0.53378633640191     -0.98038845277916
  H   -3.78264020884475     -1.36406925428520     -1.23160395231046
  H   -2.17965247388065     -0.90971315119700     -0.60501349285794
  H   -2.94412653037642      0.05315323283682     -1.87883052168735
  O   -6.09469183147120     -1.14890234825939     -0.38059422433453
  S   -7.18761962851868     -0.31420085395777     -1.27612371799272
  O   -8.31600118745503      0.74359362321916     -3.01388384252925
  O   -8.39041944830186     -0.18039910379790     -0.41649466284803
  C   -7.51259192853372     -1.83894219330130     -2.28314693549130
  H   -6.73002754394754     -1.89244483685183     -3.02909079715716
  H   -8.48152278166229     -1.72045087721682     -2.74804727638806
  H   -7.48752619409021     -2.69716745712052     -1.62237954189794
  C   -6.07854003449564      4.17917542064227     -3.15990519509887
  B   -5.62147467847095      1.47949587464144     -3.50592706816534
  H   -5.16732240159424      0.45722849052920     -3.10767525505201
  B   -7.63787368615611      3.50212773360402     -3.25543902575412
  H   -8.51149122233478      3.99964918341315     -2.61668635699221
  B   -5.20011835367657      4.08388100032497     -4.61471987665610
  H   -4.46451848094684      4.97723457315667     -4.87857375347553
  B   -6.32122322047354      2.67786617152822     -2.41068800616888
  H   -6.34926138511234      2.64256725925093     -1.22315725574618
  B   -6.94008359116351      4.37695905330999     -4.61789097988607
  H   -7.34528642264978      5.46272313815831     -4.87842379730604
  B   -7.76808581402666      2.84512208886710     -4.89580760712759
  H   -8.81472345725301      2.78778401935229     -5.45971009032179
  B   -4.92115745521602      2.35645182729617     -4.88247292856867
  H   -3.95563292679041      1.96571149229530     -5.45564660929965
  B   -6.24267319121935      3.20099753297564     -5.73756105215960
  H   -6.20514889100823      3.40276890295949     -6.90856997872504
  B   -4.81908797460745      3.03080839076165     -3.25122332869520
  H   -3.83444665348278      3.23656757807065     -2.62045357430289
  B   -7.37717555857413      1.77569081085124     -3.51586371592148
  B   -6.51417419496459      1.58320813515610     -5.05027956337458
  H   -6.67449780035209      0.62696868725369     -5.74102079636532
  H   -8.97604234621905      1.12140244879213     -2.43657054322736
  H   -5.93590887538019      5.05210206325707     -2.52885611617565
