50
Coordinates from ORCA-job surface_scan
  C   -5.82256029082027      0.92860222261656      1.44458236692561
  C   -5.03733583937919      0.18638764348825      0.45345074679394
  C   -3.79891435813946      0.29524455528822      0.04526862579270
  C   -2.96210553118197      1.38570942208021      0.67968141123836
  C   -3.82939676356956      2.44423051633236      1.35601977352357
  H   -2.35071525360995      1.84290035903981     -0.10028662531592
  H   -2.28838135982809      0.92752263686061      1.40989787156894
  C   -4.85650272465380      1.78680604242349      2.27303396053796
  H   -4.35007859371082      3.02012536695648      0.58931602006600
  H   -3.19764751157378      3.12675642193739      1.92830932230091
  H   -5.42207259643242      2.54191177701597      2.82066779323847
  H   -4.34104743441239      1.15180460011447      2.99592944839711
  H   -6.37669665972213      0.23355297335571      2.07840740450341
  H   -6.56252758520808      1.54603238388394      0.92738460023719
  C   -3.13301005527591     -0.56135908962291     -0.97892795339830
  H   -3.78587135461479     -1.38762386941503     -1.24201538811871
  H   -2.18962309431078     -0.94509011270650     -0.59316295819291
  H   -2.93063096117938      0.02686146952984     -1.87319217828735
  O   -6.05888765190320     -1.09219707244732     -0.36222473710094
  S   -7.18025585306991     -0.26375559316009     -1.26721671062795
  O   -8.30737369399480      0.75337664234844     -2.97903038068832
  O   -8.38093317782256     -0.16989721979760     -0.40349149206871
  C   -7.45951973760696     -1.79454738056311     -2.26988097138388
  H   -6.69907722590201     -1.80715223785116     -3.03982996872095
  H   -8.44712190619240     -1.72534111698817     -2.70415427414003
  H   -7.37081143068794     -2.65097466969782     -1.61270334262182
  C   -6.09070795436380      4.19948147997870     -3.17719210206791
  B   -5.62014182201428      1.49774493444915     -3.48549486931353
  H   -5.16093274089369      0.48412669743710     -3.07199992910244
  B   -7.64685842221868      3.51338138403864     -3.26182245233090
  H   -8.52299471730023      4.01412648281332     -2.62993636058227
  B   -5.21312657507044      4.08810193857738     -4.63109898185880
  H   -4.48281480573293      4.98140674188569     -4.90849042702281
  B   -6.32503119081384      2.70818885573617     -2.40651676893799
  H   -6.35277730854379      2.68833187080523     -1.21879081770392
  B   -6.95494747125300      4.37172830939903     -4.63713429649125
  H   -7.36587921281050      5.45116222519476     -4.91303138142656
  B   -7.77470963804531      2.83111483987057     -4.89308005843255
  H   -8.82110669424537      2.75988567208118     -5.45489478734066
  B   -4.92457817294172      2.35874267395821     -4.87491154092867
  H   -3.95734064775723      1.96547797219052     -5.44292414135029
  B   -6.25153368434399      3.18389506962733     -5.74101289863786
  H   -6.21578360103426      3.36947070592849     -6.91438222322954
  B   -4.82523576767931      3.05635691196555     -3.25291666319509
  H   -3.84115065665531      3.27499237305984     -2.62591160741847
  B   -7.37535310023279      1.78617218703413     -3.49968589388298
  B   -6.51280843789842      1.57455976836490     -5.03160348809787
  H   -6.66895596434196      0.60770872060766     -5.70775243350103
  H   -8.99571052308224      1.13913822773865     -2.44102034282243
  H   -5.95205224592393      5.08207728623494     -2.55901789878217
