50
Coordinates from ORCA-job surface_scan
  C   -5.82594382373769      0.92823298483677      1.43266625820462
  C   -5.04910214892223      0.17208638593928      0.43925243360300
  C   -3.80375482335758      0.28040173620114      0.04368377772861
  C   -2.96292236127618      1.36386157853367      0.68111544858387
  C   -3.82453981236455      2.42945174132161      1.35328373422285
  H   -2.34396836302236      1.81706897719748     -0.09545770319078
  H   -2.29514898291220      0.90240699701640      1.41498847772590
  C   -4.85933728341363      1.77821916022190      2.26579627650528
  H   -4.33850960757425      3.00849651991115      0.58439227062014
  H   -3.19025895739181      3.10799694416287      1.92761652464419
  H   -5.42118651824160      2.53684656095103      2.81259840277531
  H   -4.35055001767512      1.13924013894956      2.99004413819089
  H   -6.39052418124514      0.23834189106700      2.06324316494345
  H   -6.55821108326299      1.55245014753090      0.91230358785126
  C   -3.13537228135710     -0.57910795363703     -0.97756907900672
  H   -3.78890517005188     -1.40314819487809     -1.24598247813192
  H   -2.19601277504596     -0.96718558398833     -0.58608978608718
  H   -2.92417168544677      0.00859571635618     -1.87025223698690
  O   -6.04321017905394     -1.06271650724918     -0.35129815359205
  S   -7.17712464912718     -0.24137068093690     -1.26442853326815
  O   -8.30465504078045      0.75609104059716     -2.96904578360308
  O   -8.37772997839274     -0.16215743542541     -0.40080950457778
  C   -7.43576986975176     -1.77741022955501     -2.26054129126748
  H   -6.67932876223775     -1.77983063870125     -3.03438027468594
  H   -8.42657846575286     -1.72652562400580     -2.68977475180136
  H   -7.32917454933923     -2.62941850304094     -1.60058084009560
  C   -6.10185734230080      4.21019264021662     -3.18405575556029
  B   -5.61993089505446      1.50870174360670     -3.47486736190223
  H   -5.15780823054992      0.49964909307241     -3.05373659638538
  B   -7.65522789734964      3.51762572538939     -3.26798576475596
  H   -8.53468368680297      4.01842090392690     -2.64111397309833
  B   -5.22068577313750      4.09345711191675     -4.63536303010927
  H   -4.49337703991527      4.98787500216383     -4.91664262200742
  B   -6.33207485598588      2.72275164319553     -2.40489304784343
  H   -6.36268579803418      2.70955521434222     -1.21711868062822
  B   -6.96365202559753      4.37015572154087     -4.64694455352102
  H   -7.37814719559178      5.44612323928049     -4.93030377314517
  B   -7.77673994567699      2.82460870223083     -4.89538555045162
  H   -8.82140620540839      2.74560042029901     -5.45889773555592
  B   -4.92460657183484      2.36384067527979     -4.86804500395739
  H   -3.95461800922729      1.97106081248622     -5.43145370418113
  B   -6.25304987854533      3.17831651246149     -5.74211411144952
  H   -6.21540243039996      3.35674349002647     -6.91635948805499
  B   -4.83166293587089      3.07166037849059     -3.25001048708426
  H   -3.84974937947110      3.29755819217806     -2.62223291653692
  B   -7.37592231577652      1.79039849146792     -3.49503427398376
  B   -6.50923732354735      1.57232472694884     -5.02351557391564
  H   -6.66013820380454      0.60084000008942     -5.69388174334242
  H   -8.99900060649806      1.14184069293846     -2.43859626918885
  H   -5.96797408288340      5.09704169707424     -2.57101206264491
