26
Coordinates from ORCA-job surface_scan
  C   -5.92038635628133     -0.33500422647587     -0.10935317624516
  C   -4.48030664050540      0.07829412016106     -0.15657247850430
  C   -3.44052165444998     -0.74544814967962     -0.06203223797278
  C   -3.64661851147381     -2.23147223216831      0.06646492712586
  C   -5.05487690942792     -2.58131488120973      0.53716273587330
  H   -2.90676422673589     -2.62984585162130      0.76438146984717
  H   -3.45711188622856     -2.69792300799967     -0.90590968393242
  C   -6.07817085889580     -1.83977206269355     -0.31461515397870
  H   -5.17525348342101     -2.28531059990944      1.58101053265468
  H   -5.21185731346379     -3.65930199911583      0.46787979841216
  H   -7.09253080603388     -2.14123684550602     -0.04870448608373
  H   -5.91661144622014     -2.08332375723689     -1.36656228215167
  H   -6.47255574699295      0.22483524071858     -0.86911852057728
  H   -6.32729258830932     -0.03216928970564      0.86200009079653
  C   -2.01522338509879     -0.28068268221051     -0.10791210338655
  H   -1.96262868952313      0.77386376201527     -0.36109068746388
  H   -1.45897148134594     -0.85416430274019     -0.84833510717591
  H   -1.54158056538073     -0.43599436983536      0.86158206357205
  O   -5.22117976127776      2.05492680407976      1.93469942012801
  S   -5.12207685020283      2.49936322128875      0.57012683809315
  O   -6.35837230435103      2.80108288296336     -0.09841587462711
  O   -4.26713291420226      1.45729222976005     -0.29987917007600
  C   -4.00017538707546      3.89028216597157      0.43620546900040
  H   -4.48177106420574      4.74816562351950      0.88654187833545
  H   -3.81937558725056      4.05302133115326     -0.61705551676494
  H   -3.09345358164580      3.62854687647682      0.96334125510169
