26
Coordinates from ORCA-job surface_scan
  C   -5.94403818277559     -0.35008433232153     -0.15707345029109
  C   -4.50907314000008      0.08164988245292     -0.20015944927704
  C   -3.45926199871957     -0.72476825336409     -0.07400422762000
  C   -3.64646337916547     -2.20959924998681      0.09025169278350
  C   -5.05496762720012     -2.56639412819339      0.55503785767051
  H   -2.90887981787243     -2.57963145915929      0.80592621667140
  H   -3.44018982032494     -2.69767239972901     -0.86803201324014
  C   -6.07913812010095     -1.86144428693367     -0.32637645830786
  H   -5.19039634559297     -2.24417506570547      1.58922740171169
  H   -5.19647790157875     -3.64792033182507      0.51293964213745
  H   -7.09199516287267     -2.17057201429371     -0.06352218213147
  H   -5.90268814326385     -2.12875446475648     -1.37015086153460
  H   -6.49575721149330      0.18330650461999     -0.93618725293331
  H   -6.36395192838128     -0.02874740618439      0.80272207830590
  C   -2.04015312127070     -0.24073164215517     -0.11377443694362
  H   -1.99618234752920      0.79717065947188     -0.42988325388707
  H   -1.45686988810718     -0.84962178038134     -0.80315257793911
  H   -1.58984504255734     -0.32830956031194      0.87523191055985
  O   -5.13929046473201      1.97216959358639      1.92629830888669
  S   -5.10180058882881      2.48194343818277      0.58187660927910
  O   -6.36404350050384      2.83741150616101     -0.00688472006807
  O   -4.31747178583255      1.46018437347991     -0.37573358924172
  C   -3.96224731542723      3.85995363118427      0.45590236937326
  H   -4.41093516807864      4.70795956600343      0.95619281805749
  H   -3.82053016399332      4.05919867308687     -0.59707065171803
  H   -3.04015183379704      3.56418854707195      0.93623821969630
