26
Coordinates from ORCA-job surface_scan
  C   -5.88405100734590     -0.31789095804961     -0.00115055040862
  C   -4.43785071767821      0.07027705547000     -0.06054512423658
  C   -3.41283536252373     -0.77703797185758     -0.04287360363478
  C   -3.64561349345641     -2.26397646122287      0.00983413840527
  C   -5.04690936352352     -2.61271004867832      0.50130342480374
  H   -2.89482524092091     -2.71477197832103      0.66279951478354
  H   -3.49335101514347     -2.67975437265579     -0.99160444600866
  C   -6.07738536805721     -1.80669773715401     -0.28027898094866
  H   -5.13296372982573     -2.37236254712127      1.56268061200508
  H   -5.22744566717780     -3.68223216096371      0.37838958945903
  H   -7.09027020808311     -2.10213874500650     -0.00231397982371
  H   -5.95005690777028     -1.99693306425390     -1.34779517592455
  H   -6.44047095136634      0.29009806161964     -0.71914895542512
  H   -6.26554779405127     -0.05804270033968      0.99273839769975
  C   -1.98003685066677     -0.33752405230749     -0.10374809196257
  H   -1.91383779255060      0.73447137212440     -0.26213345844525
  H   -1.46615600220912     -0.85101589221705     -0.91561061549656
  H   -1.47188241222531     -0.59035638269330      0.82686664865451
  O   -5.44149145796624      2.22634826903495      1.90559187490281
  S   -5.16775670212785      2.53788614613269      0.52765122891623
  O   -6.30997611493564      2.75140026018397     -0.31925270485444
  O   -4.19030684189608      1.45025649699167     -0.12612603327984
  C   -4.04675303201779      3.92964778279035      0.40919417503917
  H   -4.58172940185331      4.81161610623148      0.73581480630286
  H   -3.75047691210108      4.01480128604514     -0.62683803010028
  H   -3.20281965252615      3.72335223621787      1.05239533957764
