100
Coordinates from ORCA-job ./surface_scan.023
  C   -2.86667865007568     -1.02832593488631     -0.56530109086665
  C   -3.21912835257116     -0.41017274514082      0.68658933247312
  C   -3.65990805692486     -0.77773396285783      1.84393271786719
  C   -3.91903429356995     -2.28085673497285      1.98242694382498
  C   -3.96030711733437     -2.96468448127328      0.61818685296603
  H   -4.86761467683999     -2.41367162796660      2.50431823970751
  H   -3.12092093078085     -2.70015348277850      2.60137694860014
  C   -2.78160374700284     -2.54399135263340     -0.25634897490756
  H   -4.89150255516238     -2.70002889686393      0.11593829525779
  H   -3.94939656467412     -4.04796488406648      0.75732769031306
  H   -2.78465295596559     -3.09674693590836     -1.19616974899492
  H   -1.84612610741727     -2.75165848643774      0.26639328952585
  H   -1.91292302634983     -0.65560759503229     -0.94087799897870
  H   -3.62532803747409     -0.82760357002761     -1.32585960283387
  C   -3.93239298979488      0.08325834251019      3.03041683619933
  H   -3.63401326801352      1.10368398612207      2.80796352822996
  H   -3.37424581946200     -0.27766048194608      3.89311672356203
  H   -4.99231589505850      0.05344165040374      3.27887502978160
  O   -3.10832688255693      2.03988406001994      0.53660362400978
  S   -3.39020956027992      2.31887894671136     -0.93480480973773
  O   -3.29742127612667      2.71231325472561     -4.14524708296935
  O   -2.15625371632875      2.11133243195783     -1.76462595750059
  C   -3.48005583394263      4.18610925997045     -0.82018766111347
  H   -4.30835773119828      4.44083412126360     -0.16994870951506
  H   -3.64018653643395      4.57600027663642     -1.81792787847148
  H   -2.54738467170594      4.55048675648430     -0.40680939898949
  C   -6.20668379247050      0.70891662689910     -6.14005445390678
  B   -5.34300414561619      0.79823957777949     -3.52550668919438
  H   -4.80770117740137      0.28034626837265     -2.60544436861244
  B   -5.15489992956989      2.04686820512474     -6.11381098742406
  H   -4.51569127659981      2.28381784155520     -7.07469447695053
  B   -7.63401974417976      0.92779729048166     -5.24071872819486
  H   -8.63169432069877      0.43045770740014     -5.64029537067946
  B   -4.80988151561800      0.55214754911238     -5.19605773750954
  H   -3.93736945033138     -0.14927112459113     -5.56546817906662
  B   -6.90485961175900      2.26000268510486     -6.13901986706902
  H   -7.43208958893559      2.64107685059658     -7.12797772052636
  B   -5.91171028792742      3.20772783519654     -5.02625568750068
  H   -5.75907923193991      4.37645159181930     -5.14519875185682
  B   -7.11283597582027      1.02530312288612     -3.55582965879317
  H   -7.81149186811362      0.67606653481681     -2.65992060964583
  B   -7.45325848415807      2.51691792380686     -4.47369596520191
  H   -8.38428803002823      3.21676907556034     -4.22153239621055
  B   -6.34234711652388     -0.12281467688990     -4.65088542475109
  H   -6.49189017194852     -1.29691411551692     -4.67393505295853
  B   -4.56342066687607      2.15581905555741     -4.41997108164155
  B   -6.03962975846531      2.42487198897233     -3.40722334020635
  H   -5.95652510794213      3.05657572373962     -2.40209795231388
  H   -2.86167501829130      2.39367611754800     -3.33650946033923
  H   -6.26720615477330      0.13126051991450     -7.05490886174410
  Cl  -3.05827183963144      5.94713230975325     -6.48677060148810
  C   -2.80635662795800      5.60690657536171     -4.77161983356141
  Cl  -3.91004689636309      6.56761047131341     -3.78420598616418
  H   -1.79010114541753      5.89755070365085     -4.50982494075602
  H   -3.00661881546994      4.54115335690017     -4.58979039658258
  Cl  -10.79768706962091      3.80371564397839     -1.39615158355293
  C   -9.38056783677820      2.82875906546737     -0.97212434833937
  Cl  -9.86500722892987      1.19915098179921     -0.50323767111320
  H   -8.88320786148041      3.29131380952348     -0.12007178478330
  H   -8.73139765543565      2.75216062509559     -1.84651417708283
  Cl  -7.81699385547996     -3.20076372846850     -0.72692355129620
  C   -8.43214805357402     -2.03130222111721     -1.89561814514344
  Cl  -9.70707710808217     -2.74043065579114     -2.89345567226788
  H   -7.61123615868533     -1.72220693733343     -2.54264035850117
  H   -8.85085354513839     -1.19053716803057     -1.34395651201678
  Cl  -7.77146359603455      7.08025912472887     -6.10247199161918
  C   -8.68912507116490      5.57829885912248     -6.26805831160178
  Cl  -9.53941513057798      5.52255385651312     -7.81454652808882
  H   -9.43234782238433      5.53591064127696     -5.47296899726168
  H   -7.99274538190064      4.73955999673581     -6.22729097180935
  Cl  -6.99830144685478      5.39577665290416     -0.77055052646595
  C   -7.14986477979631      5.88441904943763     -2.45986466983898
  Cl  -8.82700930196716      6.29161951643409     -2.83403743611637
  H   -6.84201719591553      5.04656358950280     -3.08848979439809
  H   -6.53091307266519      6.76656984121180     -2.61841242265057
  Cl  -11.72263513971362      0.17495917155340     -4.92634795553035
  C   -11.11495876906424      1.56656103786947     -4.01817111860926
  Cl  -11.38963882514599      3.07203243309353     -4.90489433753554
  H   -10.03903198319309      1.44409242959625     -3.88541450009422
  H   -11.65561222894217      1.62216810069016     -3.07476692211398
  Cl  -0.29460541829572      5.54523880405063     -2.06839016703559
  C   0.05715913344201      3.87452292665631     -2.53122204026056
  Cl  0.32590053358927      3.75979287093594     -4.27511557755227
  H   -0.79788067688811      3.23354339772587     -2.25723013905465
  H   0.97420213514202      3.57637445383815     -2.02551832553156
  Cl  -12.05722753593225      1.53500818136251     -8.26024614311969
  C   -10.33861865468664      1.88731085838658     -8.04497837549222
  Cl  -9.39292553717779      1.27944325612090     -9.40653568231721
  H   -9.98926444941437      1.39163434859584     -7.13964625655328
  H   -10.21306224723764      2.96861525375144     -7.99246624947593
  Cl  -10.31559406101544     -1.72935724388096      3.03701872543632
  C   -8.78914216912347     -1.23235902035743      2.29085083044858
  Cl  -7.45972485934900     -1.36165258610202      3.43491369327922
  H   -8.87566665326960     -0.19122037836908      1.98205669349077
  H   -8.57699385761095     -1.89561990832631      1.45286935516232
  Cl  -7.21401969496801      2.06839905681715      1.71212339659050
  C   -6.13910461154231      1.43578113403358      0.46045464531785
  Cl  -6.47731385768692     -0.26025545362236      0.15321014985265
  H   -5.10522720037158      1.53062227032783      0.80590302590939
  H   -6.31687719516832      1.98276855609671     -0.46535382770691
