100
Coordinates from ORCA-job ./surface_scan.020
  C   -2.78125071544672     -0.99901503332301     -0.52070315694951
  C   -3.06838339954157     -0.41275074364195      0.75621416549565
  C   -3.56382840029699     -0.66566073024764      1.92036173279135
  C   -3.99348114305034     -2.13175817584058      2.02201705076282
  C   -4.05198063362966     -2.84404798160521      0.67773036198905
  H   -4.97822674283842     -2.14089436260213      2.49709074324584
  H   -3.29579698290022     -2.62516643237293      2.70923990601678
  C   -2.86331777784848     -2.52093710522977     -0.21283503722665
  H   -4.97177422893189     -2.55540737780904      0.16401299911477
  H   -4.11132164749888     -3.92285045224353      0.84382117524488
  H   -2.93273661375632     -3.04721153390954     -1.16675294858701
  H   -1.93105674206297     -2.82519746763930      0.27080250951950
  H   -1.79199344281128     -0.72416460157920     -0.88703519114296
  H   -3.52175809774593     -0.70058190651593     -1.27025086992071
  C   -3.77584427837748      0.24413496052007      3.07413184669347
  H   -3.40149753836666      1.23960092986820      2.84571954030932
  H   -3.26497403715644     -0.14890845140850      3.95772843088070
  H   -4.84377096162753      0.29383019848505      3.30564598588592
  O   -2.48800862867531      1.79609802745715      0.66324947318039
  S   -2.94415056067501      2.24663667350524     -0.75248227220277
  O   -3.63015968993925      2.92121798849567     -3.75970154654570
  O   -1.91212698259566      1.86032208061016     -1.76134214887162
  C   -2.71503077261675      4.00852735337199     -0.52990405417163
  H   -3.41065285127645      4.35949290918887      0.23233725623534
  H   -2.93477620998842      4.48309903640270     -1.48749846320445
  H   -1.68078015848994      4.18145044231508     -0.23039726555300
  C   -6.22024032233438      0.84480887555136     -6.07265895922070
  B   -5.57520274262919      0.84563788985782     -3.41469056075299
  H   -5.06637826725263      0.29805094768073     -2.48493103290025
  B   -5.24068294143285      2.21259220270239     -5.90445921101197
  H   -4.53844463145513      2.55692225211362     -6.79749933177742
  B   -7.72103043993735      0.93462122178480     -5.30824634755550
  H   -8.66060341628692      0.39812939095946     -5.80035048301332
  B   -4.88453266370105      0.72204478104940     -5.03509041153943
  H   -3.94902945349849      0.06170244161700     -5.35419558709714
  B   -6.98905021968602      2.34905352287306     -6.06483254725792
  H   -7.43949267707508      2.78154922359721     -7.07549473184719
  B   -6.14775275108459      3.27028404695419     -4.82211562384635
  H   -6.04512447648683      4.45606657376287     -4.90597964429784
  B   -7.33889762564377      0.98104356535760     -3.58638619238863
  H   -8.09833115813932      0.53888860674845     -2.78038784900350
  B   -7.69045754116547      2.48281992556071     -4.45251143682023
  H   -8.68493432930640      3.11326920990385     -4.26086077345750
  B   -6.41739027379658     -0.06933298163524     -4.65984816844610
  H   -6.50700086777354     -1.25359830289673     -4.73672176103524
  B   -4.81189128810064      2.28298710288349     -4.17290623686973
  B   -6.36594461666613      2.42166394213003     -3.28715899667678
  H   -6.42284120777952      3.01029489622668     -2.24982018384714
  H   -2.99908305840251      2.34061977419339     -3.31398183699118
  H   -6.17779323068303      0.31390280827399     -7.01285271736027
  Cl  -3.86091216950885      6.53799533031230     -6.28516136502756
  C   -3.17047554079355      5.85122258846725     -4.81723220670637
  Cl  -3.49475590361425      6.85956393533562     -3.39234664398923
  H   -2.09477121082706      5.79161310780381     -4.93369213040752
  H   -3.60582719432323      4.87444271279762     -4.62795076576592
  Cl  -11.18615878514798      3.49373938194677     -1.45140326627861
  C   -9.75478163148176      2.55655518971833     -1.02999203682528
  Cl  -10.18507799531290      0.93271786467494     -0.46946881917404
  H   -9.23628169253420      3.06451540214784     -0.22259534770799
  H   -9.12829359191997      2.45612882033899     -1.91165508552542
  Cl  -7.91304674483628     -3.25485028241040     -0.63767550150815
  C   -8.26694055716033     -2.17693003744187     -2.00805003950217
  Cl  -9.28783814100602     -2.94314999746243     -3.21231924049002
  H   -7.32590770889124     -1.89937790540230     -2.47062543286085
  H   -8.78060399154641     -1.30470194761960     -1.61995991257163
  Cl  -7.89002127889767      7.13624627469224     -6.04210612969614
  C   -8.79202724118102      5.62316336391897     -6.10279233028428
  Cl  -9.84032518066443      5.51722716956997     -7.52397664127871
  H   -9.41462737932476      5.56023577162347     -5.21619511132903
  H   -8.08036795191506      4.80527681801587     -6.14101375741361
  Cl  -6.45483720108128      5.44681712443133     -0.51886047076264
  C   -6.94933117247183      5.86144082590862     -2.16496459184660
  Cl  -8.67736371413458      6.21164008095091     -2.25923644596865
  H   -6.74639722395926      5.00676069845997     -2.80161918535251
  H   -6.39590519449048      6.73980450049149     -2.47947864041114
  Cl  -11.70391307547434     -0.05628467122371     -5.32002945452707
  C   -11.23727131194947      1.40189795587844     -4.43992566572819
  Cl  -11.61596317652225      2.87150600431837     -5.33683156795785
  H   -10.16275484703718      1.37198117982876     -4.28553518075752
  H   -11.78248078749399      1.42445305586510     -3.50208207144360
  Cl  0.11834493566750      5.33438964234586     -2.69375401297039
  C   0.23598419196789      3.65251043545003     -3.23280347585481
  Cl  -0.06154858079369      3.48500352273927     -4.96313429770745
  H   -0.50558751570625      3.06468824187655     -2.69120221895599
  H   1.24853506570321      3.31450738720936     -3.03397889131243
  Cl  -11.45700790008656      1.84322590306244     -9.18437400833322
  C   -9.88543779852897      1.71319525344144     -8.39340451489601
  Cl  -8.67360115936696      0.96205633733023     -9.43927240555944
  H   -9.99280459473895      1.10134522613820     -7.50537390082678
  H   -9.54739205162246      2.71329289149974     -8.14533018588248
  Cl  -10.61626591652834     -1.24037580532656      3.16667564228119
  C   -8.99560579319309     -1.06305620591757      2.49818010850456
  Cl  -7.74104369862268     -1.59280372645906      3.63039221088423
  H   -8.82493784340469     -0.01530156105143      2.27614126290522
  H   -8.91870386887642     -1.67790993552345      1.60727570194830
  Cl  -7.16045344573704      2.30977094087928      1.71719598105770
  C   -6.18635665636372      1.53198560110931      0.46228209606468
  Cl  -6.57726004112453     -0.17742279900673      0.28431406237732
  H   -5.14093761348375      1.61041580103788      0.74521908894395
  H   -6.37003068115922      2.01657237180087     -0.49164280139902
