50
Coordinates from ORCA-job surface_scan
  C   -5.58817460369035      1.38508762320428      0.73355183539152
  C   -5.31312083349555     -0.00476062031112      0.29538578266560
  C   -4.14424727210434     -0.62448856079439      0.29524882411431
  C   -2.89435701060928      0.11356175304403      0.70503093150289
  C   -3.10881023346203      1.62428953702277      0.74640569117949
  H   -2.09345425043912     -0.13553144459918      0.00581769328655
  H   -2.59204257988664     -0.24730416106705      1.69296673886584
  C   -4.39211232777869      1.94510814302575      1.50561634389229
  H   -3.19481965541802      2.01230196677733     -0.27017729170334
  H   -2.25388045692566      2.10505128999413      1.22489245087906
  H   -4.50879762951245      3.02303343759992      1.62114277922439
  H   -4.35182001606113      1.49337260922335      2.49897801498992
  H   -6.49551345020514      1.38939496285716      1.34189670765594
  H   -5.79507914592714      2.00339480724712     -0.14351782951166
  C   -3.96926665925126     -2.06020949751995     -0.08590052663481
  H   -4.92223154771131     -2.58030684445851     -0.07200926880173
  H   -3.28839873554355     -2.54385960602902      0.61274363077407
  H   -3.53230476016296     -2.13878350508252     -1.08099467349292
  O   -7.27470897912042     -2.15820265567047      0.20638921220380
  S   -6.82995382367653     -0.87754852474596     -0.38875379270361
  O   -8.32340393740918      0.94515395530507     -3.08838461440424
  O   -7.87341545553238      0.13680740115469     -0.36677764211379
  C   -6.41177879777275     -1.26795886936442     -2.11823018714004
  H   -6.48070099394000     -2.34041653741160     -2.24092277951925
  H   -5.41793864479682     -0.90111394476576     -2.33154605708427
  H   -7.12948515448672     -0.74714742686302     -2.74670010677788
  C   -6.84167481337388      4.76756497723767     -3.40274893140085
  B   -5.75462278501098      2.25964926076814     -3.03991652601000
  H   -5.21072463228819      1.47348844429094     -2.32721231652362
  B   -8.13857041048781      3.71899171057684     -3.71936037520542
  H   -9.23733971107461      4.08016507588997     -3.43540037932027
  B   -5.58478542975310      4.67890319415458     -4.54836281637152
  H   -5.00501197662742      5.68171535231226     -4.81467247064196
  B   -6.98490672542502      3.37720642561505     -2.43034654499813
  H   -7.33006886790288      3.51786414657573     -1.29673459440862
  B   -7.27153025896250      4.50761324509897     -5.03056038281808
  H   -7.80079452480033      5.39806787468071     -5.61566707738508
  B   -7.65729622051369      2.78503698197854     -5.14438318336194
  H   -8.46001370654644      2.37506492672310     -5.92286329545360
  B   -4.88885984463008      3.06833954570906     -4.36145675843679
  H   -3.73990817572914      2.85040704071437     -4.58042531367252
  B   -6.06220201359360      3.38779760325610     -5.66449002246978
  H   -5.74006617220323      3.40622413059735     -6.81028336982371
  B   -5.40529147611547      3.98065108067245     -2.93759002782239
  H   -4.70918294072851      4.52122746770423     -2.13830719595116
  B   -7.47852501551939      2.07117191693366     -3.51920100124595
  B   -6.17216842695294      1.88646258568902     -4.72353585479887
  H   -5.92599675512012      0.82493798443042     -5.20701882359097
  H   -8.34803101823182      0.88634129422198     -2.13065561648550
  H   -7.06424114348858      5.73344244639541     -2.95574898854097
