100
Coordinates from ORCA-job ./surface_scan.037
  C   -3.45289799613643     -1.86813073708473     -1.12963269544854
  C   -3.37355452426835     -1.06668268927293      0.07018001852417
  C   -3.60408342492563     -1.24182650957760      1.32838796502998
  C   -4.06920093773045     -2.65306787079061      1.72260248299291
  C   -4.53705816268414     -3.44382916100298      0.50513437418018
  H   -4.87901601649633     -2.55413935941337      2.44615683801867
  H   -3.22625994883404     -3.15212729001575      2.20886625352735
  C   -3.54334052996165     -3.33900144049566     -0.64811363415805
  H   -5.50356100434873     -3.05721348920510      0.17978339176868
  H   -4.66991176167697     -4.49161685178199      0.78448433320295
  H   -3.85546327865937     -3.96769732706577     -1.48308146053513
  H   -2.55787535646129     -3.66845318253345     -0.31367459006685
  H   -2.57458359825032     -1.73312410101922     -1.76346722007078
  H   -4.33711677131670     -1.59896911264783     -1.71204656824266
  C   -3.45861997276264     -0.24772040645498      2.43226471630798
  H   -3.16971613232968      0.71533935397785      2.01951017860497
  H   -2.70086719947323     -0.57986163713504      3.14109217407429
  H   -4.40189512443104     -0.14863413499935      2.96775490203554
  O   -3.23934888145315      2.17267152162884      0.38251408812007
  S   -3.48664463241371      3.00132897901546     -0.83612956041576
  O   -3.21703455190504      2.95045823488028     -4.18899543285703
  O   -2.29418731917614      2.96362656057754     -1.77153053966011
  C   -3.32868477093428      4.74640563668160     -0.13782150651941
  H   -4.13829095640232      4.89076671531427      0.56849397468038
  H   -3.40805923725497      5.44947390624594     -0.95820842124212
  H   -2.36976774058762      4.83656504938368      0.35862869305564
  C   -5.98869880661154      0.55737641946002     -5.89970780097882
  B   -5.13388759401167      1.03645498790256     -3.30963187689686
  H   -4.54808322327281      0.68905348712561     -2.34578259209421
  B   -5.02365865285494      1.94985955455057     -6.05516002224692
  H   -4.40264126632279      2.10164484653747     -7.04366264650918
  B   -7.42566248376257      0.79870389258527     -5.01963170204168
  H   -8.39198018460193      0.19654594738985     -5.34117895334182
  B   -4.58556246865194      0.61056563733823     -4.95825116684347
  H   -3.66337650297546     -0.06635353257079     -5.23679989439853
  B   -6.78256831061153      2.04707511226596     -6.09001542064964
  H   -7.33511543136574      2.27294555953558     -7.10976387616646
  B   -5.85289447740475      3.18916033564534     -5.11539247046842
  H   -5.75412679877709      4.33973356989624     -5.36981553357264
  B   -6.91588336240848      1.13528220978998     -3.36588769851000
  H   -7.60147718559086      0.84625969629116     -2.44145128494183
  B   -7.34058643526915      2.48194691491554     -4.45854919230740
  H   -8.30660839123571      3.15304635021478     -4.28513937770817
  B   -6.06165162897639     -0.08360161100874     -4.30896209114835
  H   -6.12959939723696     -1.25819584131782     -4.18082313357082
  B   -4.43055706620459      2.30980252628591     -4.38395308616877
  B   -5.93120216919564      2.60782638713574     -3.39735558500034
  H   -5.88740751395084      3.37381578783364     -2.49378238944681
  H   -2.84285541900407      2.90443863765336     -3.27149126875092
  H   -6.01392717991401     -0.13772449233359     -6.73030244379080
  Cl  -3.36269619760828      6.37213799363851     -6.33537738489239
  C   -2.86767367489715      5.88488163128147     -4.70922387192174
  Cl  -3.89302972019816      6.64874466193336     -3.49642164016592
  H   -1.84590177395077      6.22472114716922     -4.54670259841064
  H   -2.97489657383774      4.79511953086545     -4.61566802786452
  Cl  -10.60687562694276      4.02691764414551     -1.46365466552054
  C   -9.25508738930974      3.02303184817008     -0.91639657935638
  Cl  -9.82420471514787      1.42122707152585     -0.44398245036072
  H   -8.80061677265284      3.49053837990739     -0.04340186554628
  H   -8.54938915471103      2.90512715252791     -1.74030151345924
  Cl  -8.34230316899912     -3.05730373325734     -0.58963513355503
  C   -8.69262525736934     -1.85123064989494     -1.82811053136905
  Cl  -9.90822503505095     -2.44484998624893     -2.96606638161420
  H   -7.77506114123826     -1.63866686121519     -2.37541988512422
  H   -9.08134393689874     -0.96278825604640     -1.33222116892509
  Cl  -7.88050888976020      6.83177670262222     -6.63123373401954
  C   -8.75981671608620      5.30074759224357     -6.52913416754731
  Cl  -9.61189140496050      4.95669446690960     -8.03608047272591
  H   -9.49864366865549      5.37747414886563     -5.73243040870171
  H   -8.04111799876022      4.49995689529244     -6.35155684562279
  Cl  -7.06473428848130      5.72398712743297     -1.07513497819798
  C   -7.21375703260781      6.12987224588456     -2.78772443647054
  Cl  -8.89628863527428      6.46167885774387     -3.20900216246289
  H   -6.86993553662769      5.27573302273323     -3.37264964780380
  H   -6.62457623962812      7.02531635251779     -2.97939391145566
  Cl  -11.61910883251891      0.11916280966502     -4.71063311996704
  C   -11.01500065102370      1.60178829214931     -3.95579042915804
  Cl  -11.27486569776180      2.99835456741571     -5.00906560928976
  H   -9.94155992586393      1.49257480305436     -3.79676225848232
  H   -11.56378257252879      1.76518626901803     -3.02971458295192
  Cl  -0.52319357627948      6.40984535932324     -1.91775738784553
  C   -0.04935650996315      4.73596066787231     -2.23819239670472
  Cl  0.49573516903624      4.55881914906903     -3.91016892578524
  H   -0.91870287930640      4.07291485686010     -2.07353498391923
  H   0.78604898156093      4.49311304900149     -1.58340652522256
  Cl  -11.91088609050412      0.91051895639656     -8.21611288277148
  C   -10.20655720010805      1.28041889874000     -7.92844059151220
  Cl  -9.18007452406938      0.53117463227319     -9.15429201311232
  H   -9.92228262108561      0.87983716431733     -6.95620269960041
  H   -10.07584057260134      2.36119930526830     -7.98084337558730
  Cl  -10.11714487773752     -1.25614274100774      3.53162823131742
  C   -8.64704983703093     -0.95038926549950      2.59479029055274
  Cl  -7.21097697676710     -1.32074762591182      3.54051764653660
  H   -8.61677347387512      0.10572613793863      2.32807941225899
  H   -8.65059014110020     -1.59672570085757      1.71785279729320
  Cl  -6.94951484603141      2.13595646282866      1.61732328496462
  C   -6.04671696635788      1.32987128824681      0.33260464812727
  Cl  -6.55131623185623     -0.34304721081199      0.18254538913611
  H   -4.97283171557250      1.37570759557290      0.56741905211689
  H   -6.26758509987647      1.82949425207334     -0.60972975450799
