100
Coordinates from ORCA-job ./surface_scan.038
  C   -3.64376622747793     -1.86953799923548     -1.33199233868222
  C   -3.48208743149415     -1.05766229109265     -0.14821491276758
  C   -3.64864567406098     -1.20533357741132      1.12274829022818
  C   -4.12210748345628     -2.60276415001046      1.55872778843541
  C   -4.68237681884088     -3.39234880822472      0.38079260629807
  H   -4.88437426756258     -2.47799386547293      2.32833955223804
  H   -3.26284130132022     -3.11699713251976      1.99830434119465
  C   -3.75345393521072     -3.33192909340247     -0.82794600026337
  H   -5.65375598298109     -2.97844594628986      0.10841520190169
  H   -4.83102469205083     -4.43214881220055      0.68145152622156
  H   -4.13290396978551     -3.95870232764899     -1.63608239105628
  H   -2.76161462835046     -3.69019334834451     -0.54596529584111
  H   -2.79486209076952     -1.76840419599662     -2.01047071886059
  H   -4.54625955427396     -1.57817093539260     -1.87322861130640
  C   -3.42493649453414     -0.20661205176671      2.20710633421515
  H   -3.19334308011453      0.76012661842758      1.76518388597252
  H   -2.60174275599859     -0.52117863958399      2.84807219995359
  H   -4.31990181060471     -0.12048728495784      2.82132390292066
  O   -3.42430062151838      2.22431734904834      0.30978103628540
  S   -3.21611709756405      3.38569083014595     -0.60843031321071
  O   -3.30551816446436      3.12600615046072     -4.06270588536287
  O   -2.24155516391938      3.02237555906505     -1.71535318961925
  C   -2.11927892980054      4.49250725205947      0.45332280042508
  H   -2.67593917283329      4.74402242892544      1.34908672595889
  H   -1.87248204982334      5.38710340777655     -0.10606617930814
  H   -1.22349236211084      3.93637125205638      0.70495889625504
  C   -5.88658803097790      0.54510446763352     -5.80023279205693
  B   -5.15383582435941      1.13463510231596     -3.20594652522202
  H   -4.59656581387932      0.85661173275842     -2.20503733568097
  B   -4.98162054001373      1.97190973849415     -5.97205601604984
  H   -4.31006876721112      2.10561100857134     -6.92955175972856
  B   -7.36930632730466      0.75908379901802     -4.99126148531903
  H   -8.29930943044039      0.10703916512589     -5.32246674886182
  B   -4.53156094624112      0.67929675889720     -4.79558445287862
  H   -3.57077527751199      0.03928771450627     -5.02953953774000
  B   -6.73976112634628      1.99345432694190     -6.08063406050707
  H   -7.25737035867353      2.15285991201627     -7.13052374296850
  B   -5.88756923874221      3.20643360442626     -5.12025752230063
  H   -5.82887289827708      4.35027349425442     -5.41668738058747
  B   -6.93401458010634      1.17102032768861     -3.33190493791492
  H   -7.64921416436010      0.89470248784834     -2.42620458523486
  B   -7.37098144448956      2.46501525518886     -4.49288542403004
  H   -8.36645350724989      3.10418505984768     -4.37458812565977
  B   -6.01155770519456     -0.05097128940395     -4.19519400616830
  H   -6.05149677943189     -1.22338617083615     -4.03674957985709
  B   -4.46729561149423      2.41107682386279     -4.29658606285269
  B   -6.01288659568358      2.68138687095514     -3.38278063727747
  H   -6.01612767854605      3.47594269375121     -2.50260285016167
  H   -2.89288571018191      3.00167107411979     -3.16810269626580
  H   -5.84656506820049     -0.17758821949761     -6.60657330150546
  Cl  -4.36912539503025      7.03431507572157     -4.83647084297320
  C   -3.37844153663750      6.11611990092038     -3.69622424227625
  Cl  -4.04962535145326      6.22055969810138     -2.06277197922238
  H   -2.38334008154861      6.55815629212415     -3.68398036535095
  H   -3.37073768896158      5.06057752636668     -4.00032403174559
  Cl  -10.70177477556050      4.10933921924372     -1.76358315188160
  C   -9.40691414799443      3.11087309903514     -1.08688592594821
  Cl  -10.01825836904299      1.51902605659371     -0.63166646899371
  H   -9.02280854614053      3.59415240185122     -0.18901263475138
  H   -8.63817446254759      2.97699100442511     -1.84961454043848
  Cl  -8.48393432305418     -2.91726265360143     -0.43097957963623
  C   -8.71632676856719     -1.80005347634929     -1.77536731106688
  Cl  -9.66560472644334     -2.54743007428429     -3.06547793072814
  H   -7.73973893256256     -1.52796255100978     -2.17351811241672
  H   -9.25586441193306     -0.93091239770095     -1.40102827583221
  Cl  -8.06300832412481      6.69567282404628     -7.07765692028201
  C   -8.82851765516494      5.13061255126991     -6.77082327639940
  Cl  -9.62137047409161      4.51975948495555     -8.22200669342675
  H   -9.58682101441664      5.26086859528859     -5.99993658961194
  H   -8.05732452578821      4.41754764689311     -6.47705851879694
  Cl  -7.40948998370816      5.87192725419514     -1.23777473794032
  C   -7.34826061344908      6.23335067298241     -2.96670654051832
  Cl  -8.96304765970303      6.57744181568055     -3.59077420940245
  H   -6.95496640187315      5.35924544926400     -3.48735167054597
  H   -6.72668583819528      7.11580663981988     -3.11191374586843
  Cl  -11.57355017133112     -0.05216500327780     -4.75987796480527
  C   -11.03250426994659      1.51416200806533     -4.13773651839929
  Cl  -11.27762534513304      2.79003986191644     -5.33740846090166
  H   -9.96453917715961      1.44804509325389     -3.92740826381535
  H   -11.62131865973566      1.75649036112440     -3.25456432072554
  Cl  -0.01845810216297      6.19974285582114     -2.18281293125125
  C   -0.01052817252029      4.54513552334517     -2.80789564299689
  Cl  -0.14082303406210      4.55299723169261     -4.57100478271070
  H   -0.87045655431522      3.99369327844248     -2.38546889895611
  H   0.94344223852178      4.09506191224258     -2.53792005397346
  Cl  -11.66787204239126      0.33034108708438     -8.38979206245398
  C   -10.01617589212555      0.83847746025988     -8.01843152005440
  Cl  -8.86066698594846      0.09872640493870     -9.12914683606268
  H   -9.77097815673705      0.51410642466474     -7.00788247498877
  H   -9.95609549062973      1.92138378050372     -8.12672012213595
  Cl  -10.01820239157418     -1.07141791288759      3.74412857189231
  C   -8.58183003344961     -0.78007085739935      2.75205446253007
  Cl  -7.12247811454220     -1.27105284720892      3.60196402940638
  H   -8.51264998207903      0.28731002839650      2.54239296681457
  H   -8.65880875667190     -1.37386387816248      1.84190388086360
  Cl  -7.11312963732802      2.34866136500131      1.58339648950406
  C   -6.21569218497661      1.54489635754289      0.29230467676300
  Cl  -6.62297035284468     -0.16021219869403      0.23225327726209
  H   -5.13086424805459      1.66914952524780      0.46759070595180
  H   -6.51187728893431      1.98899395542971     -0.65636759595179
