50
Coordinates from ORCA-job surface_scan
  C   -5.42221845951524      1.37354455156454      0.65037340825109
  C   -5.15050283378300     -0.04196264049498      0.49542970120126
  C   -4.08702355865794     -0.77985181027255      0.61753768131509
  C   -2.79495219261359     -0.05573438059679      0.98744108896502
  C   -2.91742431099091      1.45046878196297      0.76884663430167
  H   -1.98208265437332     -0.46295069103265      0.38398634583501
  H   -2.58055628297256     -0.27076628922114      2.03786487683332
  C   -4.20799120658409      1.98946204630040      1.37936696485156
  H   -2.91928139670893      1.66689506287598     -0.30118050392850
  H   -2.05774492903610      1.95358637179388      1.21580218292685
  H   -4.25322365152492      3.07446758457630      1.28428229524188
  H   -4.25219405823710      1.72764985234139      2.43792102184150
  H   -6.34081255426067      1.52991652863182      1.21912806199478
  H   -5.56564308340353      1.84035874710596     -0.32680110702601
  C   -4.01243869782898     -2.26167394517934      0.44739545381399
  H   -5.01145149760602     -2.67792915492294      0.34787423492998
  H   -3.51827073098187     -2.71195666563509      1.30672572730775
  H   -3.43351043416084     -2.50831651963080     -0.44178229298219
  O   -8.00564228196562     -2.27929102167451     -0.30360627726267
  S   -7.07078077392706     -1.08986557369368     -0.46054625591482
  O   -8.21039941922378      0.93530635929367     -3.23901538286324
  O   -7.83652069821800      0.16512224162658     -0.59785915325373
  C   -6.30183156865598     -1.39969951977904     -2.12594950031710
  H   -6.08050641962301     -2.45646357068305     -2.20299621456678
  H   -5.40663350822154     -0.79572455141137     -2.19969024643259
  H   -7.01881509810224     -1.09309836559414     -2.88031327136086
  C   -6.96032474144691      4.83364329586841     -3.39694702374496
  B   -5.72454154268123      2.37796104566271     -3.21205059254771
  H   -5.11513918219426      1.57969516430249     -2.57389527074597
  B   -8.21087736444179      3.73423873064218     -3.71097740770004
  H   -9.31353406523325      4.00429555258038     -3.35964748084771
  B   -5.75640346446428      4.87256473897596     -4.60191564980617
  H   -5.24287894409065      5.91501223771548     -4.84004042582811
  B   -6.98095142840731      3.39306882068175     -2.49039435160035
  H   -7.28267829335150      3.45476790748296     -1.34147361481198
  B   -7.45415608423913      4.63003383758597     -5.01828202781704
  H   -8.06094281265920      5.51270631061584     -5.53061863437205
  B   -7.74634708516911      2.89673396662371     -5.20852681623251
  H   -8.56372455146111      2.48113682888519     -5.96597495444307
  B   -4.96829220996405      3.29322417045445     -4.52813907131938
  H   -3.82343578516339      3.14516521194519     -4.80619401601991
  B   -6.21353826711428      3.61905533792712     -5.76444819398734
  H   -5.94561327644251      3.71055350762202     -6.91823981497665
  B   -5.46489035729283      4.10959160130104     -3.03575012515326
  H   -4.76075211695451      4.64558945603763     -2.24476166947928
  B   -7.46247170530590      2.10896604281033     -3.62748320700245
  B   -6.20044443955246      2.06711937162615     -4.90485085071113
  H   -5.92235650176783      1.04324574116405     -5.44380007102817
  H   -8.16366136060347      0.77585260102101     -2.28804646869839
  H   -7.21522211882112      5.76154509221568     -2.89256773482814
