26
Coordinates from ORCA-job surface_scan
  C   -5.96966322316836     -0.57343075532414      0.77314503991080
  C   -4.59217228370387      0.01043497953619      0.67551482275816
  C   -3.53982427077359     -0.59814166673513      0.13812748139324
  C   -3.65232486968843     -1.99108551807306     -0.42099116921625
  C   -4.92388455942581     -2.70370966372503      0.02790756781063
  H   -2.77363610532373     -2.56992178364776     -0.12541126954810
  H   -3.63842951106158     -1.91997657711246     -1.51328444521919
  C   -6.12159840715704     -1.77850794929641     -0.14893086081496
  H   -4.83529131533499     -2.98018643705261      1.08017052355351
  H   -5.05754388851608     -3.61858841214937     -0.55207215196476
  H   -7.05042667046681     -2.30408835789372      0.07715936336010
  H   -6.16586796955982     -1.43510180109716     -1.18331836039618
  H   -6.68432556403521      0.21081589701114      0.51362326398327
  H   -6.15930537209551     -0.86143788169598      1.81266458584792
  C   -2.18571099018425      0.03840710018268      0.03498506321836
  H   -1.92886709640864      0.20314867094512     -1.01163869533901
  H   -1.42878411135091     -0.61730794470254      0.46391214015861
  H   -2.16432963570814      0.98730975462785      0.56250239174720
  O   -6.11887660527368      3.15615838791753      1.24598391380646
  S   -5.17719735937027      2.49647827931573      0.39857701455134
  O   -5.62245645609235      2.01739425124403     -0.87347993165515
  O   -4.47977909721224      1.29439942157570      1.21561652742544
  C   -3.75408552625742      3.57845146212802      0.17369267521223
  H   -4.11956091845016      4.52298370326585     -0.20544151850799
  H   -3.08832530297683      3.10676747385365     -0.53482394778799
  H   -3.29053289040402      3.70544536690183      1.14164997571228
