50
Coordinates from ORCA-job surface_scan
  C   -7.91430962653236     -0.49854353077422     -0.18675998306091
  C   -6.54541250077625     -0.97173386432012     -0.29621692726801
  C   -5.43387549655844     -0.63045997903165      0.27818421399901
  C   -5.51065690247558      0.47041976412679      1.34407561063577
  C   -6.81366129409378      1.25656338841209      1.22644176060771
  H   -4.65436344299669      1.13626119377686      1.21858566600877
  H   -5.43473107564882     -0.00041142112314      2.33063123461668
  C   -8.01692437244792      0.32412263292813      1.11629695698923
  H   -6.77332795080166      1.87546846396309      0.32994170256141
  H   -6.92676361574252      1.91315941796216      2.09512015524252
  H   -8.94569947359131      0.89890835572766      1.11239230047539
  H   -8.03476381153179     -0.35384527140711      1.97364165062126
  H   -8.62210309597721     -1.33030118849592     -0.16835486323447
  H   -8.13826795168709      0.11400528465430     -1.06295373041636
  C   -4.08325418123116     -1.21802249470234      0.02013815113928
  H   -4.18269204126458     -2.01599580038947     -0.71007822102653
  H   -3.65502783971038     -1.61200377409124      0.94328795471716
  H   -3.41230299195046     -0.45607922444159     -0.37479219504549
  O   -5.56810250775828     -2.60063533370760     -2.43041718120979
  S   -5.57076865717035     -1.21845693407529     -3.00327258414906
  O   -6.92038229928445      1.55620375320942     -4.45230123005609
  O   -6.96900268826144     -0.66135280406133     -3.07223343385469
  C   -5.26001858387890     -1.59368292888328     -4.84213528417010
  H   -4.27732762854381     -2.04326302234918     -4.92972813971112
  H   -5.30998503367752     -0.65386215490271     -5.37873436768794
  H   -6.02713663764085     -2.27740033435699     -5.18476738132427
  C   -5.17816057725015      3.89611351163940     -1.59809879820761
  B   -4.35127320645525      2.61257683358131     -3.89374340221846
  H   -3.77970021154502      1.72284864230491     -4.42051440849327
  B   -6.62426085503535      3.39223651747239     -2.32285012581284
  H   -7.55284736723353      3.10215592331602     -1.65084662592884
  B   -4.34086246835250      5.09423930033717     -2.47823695359732
  H   -3.74403102203669      5.91402722189039     -1.86451321515738
  B   -5.19764819344120      2.36960313548217     -2.34738274405602
  H   -5.15775972586681      1.40299333150245     -1.67592280501803
  B   -6.11249408649937      5.06921811685470     -2.41833768418064
  H   -6.69011558447103      5.87579397692337     -1.77003312500593
  B   -6.70776608333015      4.29497830531059     -3.88998088907892
  H   -7.75185488426293      4.59172056959464     -4.36005874034798
  B   -3.83408255094141      4.30065556656674     -3.98267914244299
  H   -2.84025688041139      4.60885995892611     -4.55057223174953
  B   -5.27206924903854      5.35565763685753     -3.95209304708967
  H   -5.29931592395368      6.41148305467187     -4.49015218317616
  B   -3.78381500846393      3.41515348748810     -2.43401798649679
  H   -2.81726722622564      3.13669811366662     -1.80893059200758
  B   -6.18532942219203      2.56341260471571     -3.86508506607562
  B   -5.30764001520018      3.82064810405841     -4.84890064820712
  H   -5.33711396114248      3.77274518713533     -6.03067480181375
  H   -6.98482764227753      0.71507956290106     -3.93340739835437
  H   -5.14027517250464      3.93929923050287     -0.51374793807939
