50
Coordinates from ORCA-job ./surface_scan.026
  C   -7.17301442842144     -0.30701630631927     -0.97227227169234
  C   -5.76316775318190     -0.78026443619418     -1.05126232041513
  C   -4.93359529626724     -0.93541514635786     -0.02256824677618
  C   -5.36768716535748     -0.57690375685177      1.36782563174903
  C   -6.62108678706099      0.28317614732809      1.39351097355598
  H   -4.54286840787025     -0.04631792300535      1.85692099020325
  H   -5.52241499254266     -1.49642982808301      1.95060527307290
  C   -7.67606994162979     -0.28742414241998      0.46387693940926
  H   -6.36322683053049      1.29548692990299      1.06502844579154
  H   -7.00302814530899      0.36228885056151      2.41622311424107
  H   -8.60093552400369      0.29238090022556      0.52314248659894
  H   -7.91559392714581     -1.31132806361821      0.77369539219742
  H   -7.80496961481843     -0.97531368730419     -1.56185373710507
  H   -7.24514008367221      0.68234099061938     -1.43828141776162
  C   -3.53939855380896     -1.45137026779329     -0.20961065829783
  H   -3.54706667415510     -2.51906805473497     -0.45276980659907
  H   -2.95251250823324     -1.32231491433908      0.70165999228858
  H   -3.03018465945860     -0.93197729665465     -1.02330660013712
  O   -6.37212502184766     -3.13523087518900     -2.04760170531840
  S   -5.65953676132307     -2.36854721528467     -3.07178136647132
  O   -6.10759472333738      1.36303968443045     -3.88291741243222
  O   -5.23730759179093     -0.94765928379225     -2.33254959723217
  C   -6.89003247006243     -1.71752529291561     -4.20141480662398
  H   -7.13834845593501     -2.53012515597513     -4.88707446704244
  H   -6.46651870199129     -0.86784578916141     -4.74036096132427
  H   -7.76921990546456     -1.40025776394779     -3.64373876098852
  C   -5.91506493787758      4.82943056842422     -1.80516101783784
  B   -4.10719073206219      3.15635901011177     -2.99174992534831
  H   -3.25410071394886      2.32593786582762     -2.88003561581728
  B   -6.88631645109218      3.78940148582129     -2.71928358266040
  H   -7.96889331640808      3.49111890921970     -2.32041778300383
  B   -4.93635728365009      5.87873555093799     -2.70331283346574
  H   -4.73773355706700      6.97695504644813     -2.28958447610016
  B   -5.46266103726754      3.20361031105324     -1.86176089097131
  H   -5.61345864377034      2.51208956881104     -0.90344494157446
  B   -6.56176174063757      5.44066856329152     -3.24754653231525
  H   -7.43064449571672      6.25321389504200     -3.19317248793644
  B   -6.42322654563443      4.10715571096194     -4.39598510634050
  H   -7.21226327400297      3.97031598983218     -5.28065556351056
  B   -3.77614076570570      4.82165490841444     -3.51460613000042
  H   -2.67441603601833      5.20324082935556     -3.76869753950966
  B   -5.21048511551740      5.41094189210534     -4.38449931715702
  H   -5.13684257916741      6.21506623546745     -5.26312963941992
  B   -4.25247842669712      4.48769687689449     -1.84732529850602
  H   -3.60202703938365      4.66714029538020     -0.86589044852199
  B   -5.74573503161730      2.69511095908713     -3.54788321876904
  B   -4.69610520263793      3.72705703687292     -4.56395022878285
  H   -4.24816245149513      3.29881648843333     -5.58463155325970
  H   -5.57282872358106      0.75289646504450     -3.36823144998950
  H   -6.32408999318725      5.20226732138251     -0.87695823928839
