50
Coordinates from ORCA-job ./surface_scan.047
  C   -7.86016554318532     -1.19721039694153     -0.97546966241178
  C   -6.37734082046152     -1.23717919689005     -0.81369467064065
  C   -5.68065286183922     -0.53842579580252      0.08639493809920
  C   -6.37384976543339      0.44982068046666      0.98310355920677
  C   -7.82369337581641      0.72402454167968      0.61076921669896
  H   -5.80432476635965      1.38691863705844      0.97159980107385
  H   -6.30704427127125      0.07524921861615      2.01493293211709
  C   -8.53498368571077     -0.56363600472029      0.23100881055428
  H   -7.85738385679007      1.41327122279752     -0.23811666656228
  H   -8.33056066119382      1.21831786065880      1.44438341651986
  H   -9.58893958678649     -0.37385117010559      0.01014166769650
  H   -8.50374894700221     -1.26512379952657      1.07376048800672
  H   -8.20730246692898     -2.22411337253420     -1.12894152152590
  H   -8.10922225059986     -0.64146554141149     -1.88720425962368
  C   -4.20756453592200     -0.67995450120199      0.28596266578196
  H   -3.81699345016024     -1.59987652144790     -0.14883096136119
  H   -3.98127255917744     -0.68179389372689      1.35745183133908
  H   -3.66664966627877      0.16300142770172     -0.15481747773958
  O   -3.92988499106076     -2.84730702173360     -3.27852898384653
  S   -4.62540681346294     -1.63878364277147     -2.81021812167382
  O   -6.61558732583457      1.44165149540747     -2.45192777044230
  O   -5.77563189409146     -2.16008938800792     -1.68040405078231
  C   -5.78523409519117     -1.22285615184754     -4.10040555558780
  H   -5.18604389404143     -0.94794927615559     -4.96980530236746
  H   -6.37389430853122     -0.35964851951047     -3.77955407472368
  H   -6.39194927371980     -2.10580802928103     -4.30324013205667
  C   -4.19064201399555      4.64578755840701     -1.95236267633915
  B   -4.37953613680816      2.60000886737990     -3.75745696823425
  H   -3.94524629909117      1.57300139952372     -4.18505287020652
  B   -5.67965864870493      3.94404496784335     -1.57980748116213
  H   -6.05937987393172      3.92414933952784     -0.44993659414777
  B   -4.12116968881898      5.43080573760424     -3.45338453630049
  H   -3.46525301252439      6.41804140520275     -3.55812983300244
  B   -4.28285363112698      2.96025540014346     -2.03359789746096
  H   -3.74119320810506      2.30032466763280     -1.20076280713114
  B   -5.58271645142917      5.46958339290365     -2.46195132979426
  H   -5.89024364482974      6.47970217372647     -1.91217194875874
  B   -6.66526303107876      4.19350374964616     -3.02019601504607
  H   -7.85013519808214      4.29803099916649     -2.93174716332331
  B   -4.28539157206230      4.13405646475543     -4.64054429919938
  H   -3.77385307089478      4.21847078823334     -5.71470219163924
  B   -5.69938955998097      5.11616410315400     -4.18711458253344
  H   -6.19183717861348      5.90131766491652     -4.93808252068988
  B   -3.31369851089364      3.88064753167551     -3.18981218116042
  H   -2.12638585903388      3.84321805837611     -3.11526964992529
  B   -5.86901288676404      2.61650076028020     -2.75505397147953
  B   -5.86151849823600      3.35827879026866     -4.37023799939353
  H   -6.48857042144978      2.86905761003944     -5.26111167024449
  H   -6.18904355438416      0.94882465006731     -1.74577864433607
  H   -3.62431140167353      5.07630114610281     -1.13887300143666
