50
Coordinates from ORCA-job ./surface_scan.046
  C   -7.88491370709586     -1.16115729075686     -0.98201865557484
  C   -6.40159542045008     -1.16986116147699     -0.81518143010891
  C   -5.73357399287192     -0.57014851071022      0.17420635188415
  C   -6.46316638196608      0.27375280325919      1.18191136635756
  C   -7.90214053648781      0.58118134046513      0.79876579791049
  H   -5.90563503811910      1.20796988825580      1.31968596380556
  H   -6.42731769854810     -0.23737480683660      2.15526104973435
  C   -8.58933856933255     -0.66713798099090      0.27227080373393
  H   -7.91555820502016      1.35188865272257      0.02138621017950
  H   -8.43806237058241      0.98760486896960      1.66141515132829
  H   -9.64248654346179     -0.46980349986327      0.05406908587100
  H   -8.56113515347878     -1.44978540127895      1.04025855303241
  H   -8.20139431189089     -2.17800951599164     -1.23708591835238
  H   -8.14020800822676     -0.52728672378036     -1.83911946965060
  C   -4.25564978730870     -0.68157438850483      0.35790986019429
  H   -3.83100285469438     -1.52292390294777     -0.19039042963524
  H   -4.02636118297909     -0.81424817111338      1.42073509770899
  H   -3.74569632928508      0.22940907839473      0.02909734538345
  O   -3.64562606195193     -2.20556762151375     -3.17221745492643
  S   -4.62174703343507     -1.17394962128041     -2.79844681702627
  O   -6.65207517327779      1.47670241143723     -2.38151735923317
  O   -5.76332302268727     -1.92660657699337     -1.79735566537833
  C   -5.70939270222955     -1.02682521420679     -4.20610946748992
  H   -5.10602759604611     -0.63085395649699     -5.02322451458869
  H   -6.49747273245571     -0.31635096514612     -3.95520953762690
  H   -6.08803058898125     -2.02296660524465     -4.43660349562461
  C   -4.12091541482262      4.61979104881916     -2.05050418265785
  B   -4.41920187151035      2.53253444016686     -3.78838772139809
  H   -4.01736153925716      1.48934692341646     -4.20528518547696
  B   -5.61731233152174      3.97254042403288     -1.61564544183863
  H   -5.96347712416766      3.99571224840261     -0.47512903585454
  B   -4.07396373168833      5.36029730713660     -3.57548592761480
  H   -3.39358819328145      6.32434869542566     -3.72817303991177
  B   -4.26219091653446      2.93538348138604     -2.07979516188606
  H   -3.71533830099738      2.28347767854004     -1.24450815242284
  B   -5.50397843027256      5.46915305697002     -2.54454828067275
  H   -5.76717632074727      6.50278169618705     -2.01580604942614
  B   -6.63838001290574      4.21036177113172     -3.03347790537514
  H   -7.81676400202396      4.35077877616931     -2.91423950567517
  B   -4.31029150761052      4.03511890136375     -4.71792432761141
  H   -3.82928797382254      4.07229873176076     -5.80882892221328
  B   -5.68164938405355      5.07031317189255     -4.25389891260223
  H   -6.17345349248197      5.84661666538021     -5.01439835293689
  B   -3.30241120707071      3.79618922995644     -3.28957004491151
  H   -2.11512530890533      3.72448100257344     -3.24985403091514
  B   -5.88006570863987      2.61758141272721     -2.74335277011776
  B   -5.89890563704481      3.31216799475577     -4.37978885995651
  H   -6.56392694066064      2.81594576841393     -5.23916110080054
  H   -6.25833117548450      1.03714035366681     -1.62334992813131
  H   -3.51960149099499      5.05682217870139     -1.26616829869692
