26
Coordinates from ORCA-job surface_scan
  C   -5.99490768398760     -0.50363239726929      0.55579409337469
  C   -4.61427109617241      0.03481829902801      0.73650076052378
  C   -3.47930407241370     -0.56303505279437      0.39555553135713
  C   -3.50961358620865     -1.93594596073770     -0.22492346976566
  C   -4.85500428323907     -2.63448349346399     -0.05040929292271
  H   -2.71426748597383     -2.54298866840432      0.21321992342301
  H   -3.28365217680496     -1.83239454764110     -1.29124567902916
  C   -5.98813805990925     -1.68224037062802     -0.41615385736520
  H   -4.97178447718378     -2.94738414180862      0.98879261413362
  H   -4.88972363459095     -3.52680227900201     -0.67801253167995
  H   -6.94970377522161     -2.19574767795367     -0.37551775507266
  H   -5.84283484823564     -1.31834019366852     -1.43503295128702
  H   -6.64222644739611      0.30193623150537      0.20240048026093
  H   -6.38108856506400     -0.82013354782984      1.53060194191618
  C   -2.12243131014826      0.04399873909259      0.58434192080984
  H   -2.19425670353233      0.99265387219968      1.10773454131204
  H   -1.64108246817417      0.19761357926515     -0.38147743600037
  H   -1.49277649307091     -0.62794172811753      1.16608578936813
  O   -4.96884765401767      3.88840660646525      1.74849508598556
  S   -5.14530230105901      2.76784976402455      0.82540788600939
  O   -6.49758620632455      2.55208289488047      0.37668425511010
  O   -4.55610102159112      1.34461184420041      1.38363382989927
  C   -4.08779463525784      3.05282295800424     -0.60517502977775
  H   -4.47046668243980      3.92946219182155     -1.10984229056979
  H   -4.14504091784428      2.17982775521005     -1.24056107043560
  H   -3.08459341413821      3.22169532362174     -0.24105728957781
