26
Coordinates from ORCA-job surface_scan
  C   -6.00025101973489     -0.47391722351504      0.60728266190561
  C   -4.62627366339010      0.09171681264439      0.80711073081517
  C   -3.49286202755168     -0.49808893725976      0.43298868868174
  C   -3.50903811177529     -1.83795601667085     -0.25475615859329
  C   -4.84489143644410     -2.56070738256963     -0.11105834593256
  H   -2.70464177582897     -2.45626934021963      0.14977302600466
  H   -3.28833913170934     -1.68058080241259     -1.31571037438950
  C   -5.98796616435614     -1.60151411376174     -0.42218292834003
  H   -4.95369067760130     -2.92793720561064      0.91096180850574
  H   -4.87320936242335     -3.41940000859508     -0.78413478128789
  H   -6.94488187826725     -2.12497335853851     -0.40260079519826
  H   -5.85233069976530     -1.18566461002636     -1.42253900167254
  H   -6.66890080342815      0.33367210509931      0.30293150491062
  H   -6.36704949540996     -0.84787075122433      1.56929811908953
  C   -2.13693368141373      0.10262311167991      0.65565356374835
  H   -2.21311933794026      1.04510477567350      1.19018924891938
  H   -1.63320164601749      0.26313964292602     -0.29741299479794
  H   -1.52333977072672     -0.57927473821404      1.24336247407404
  O   -4.83553735119122      3.74634753282825      1.71461079147834
  S   -5.12170344556914      2.67383100912353      0.80102201307665
  O   -6.49498886732055      2.51738949453731      0.39812018898307
  O   -4.57979257175716      1.33104706929497      1.48373174267840
  C   -4.10152293637259      2.83890657264655     -0.67106221780057
  H   -4.48864002411788      3.68523919045566     -1.22182478080909
  H   -4.19552647416213      1.92763634348245     -1.24550873347296
  H   -3.08416764572505      3.01421082822646     -0.35240545057667
