26
Coordinates from ORCA-job surface_scan
  C   -5.96706391262920     -0.46066612389955      0.67480079807050
  C   -4.56205084228349     -0.31290204186396      0.75688927539952
  C   -3.45255688545814     -0.88263489222542      0.44846341660473
  C   -3.70043423006085     -2.31411280434826     -0.04995485959652
  C   -5.16339868733289     -2.74696369870901      0.04304254036762
  H   -3.06230495731621     -2.99508654752138      0.51613874519233
  H   -3.36902210835396     -2.31066767243609     -1.09119983474090
  C   -6.11633165151951     -1.61712846220817     -0.34797013942366
  H   -5.38626323708616     -3.06036774005102      1.06475181310882
  H   -5.31975896846129     -3.60626436440372     -0.61209594229685
  H   -7.15046621773478     -1.96073079415169     -0.34499250246416
  H   -5.86851671421065     -1.24701539844514     -1.34208823896148
  H   -6.38464394550905      0.48005718478471      0.27444006835847
  H   -6.43538876580207     -0.68388927086730      1.63526231099243
  C   -2.07771404952527     -0.32664056659764      0.41798633211619
  H   -2.06622917673459      0.45285700754430     -0.34466663312510
  H   -1.34132989942567     -1.09303002674430      0.19389774022239
  H   -1.85236987982652      0.14836835352042      1.36943637238845
  O   -4.16238589779562      1.95597669391087      1.42953855100267
  S   -4.61386337699496      2.39470626750942      0.07296412668683
  O   -6.05983603991097      2.29024842435335     -0.07680748366294
  O   -3.86971784219785      1.73255165833546     -0.98480517735891
  C   -4.19051590830606      4.14960140902211      0.02233509402675
  H   -4.72774084292661      4.62949230117046      0.82724970947334
  H   -4.50151807069516      4.52808767406988     -0.94069775108734
  H   -3.12137789190235      4.23286343025166      0.15392166870682
