50
Coordinates from ORCA-job surface_scan
  C   -5.73421461090455      1.06122522137553      1.17558222639649
  C   -5.05488054700787      0.00993564744599      0.34775553803042
  C   -3.74070274035004     -0.08296619484685      0.16520950715413
  C   -2.79645519310564      0.89636687421475      0.81167866983967
  C   -3.50992275542569      2.17225579100721      1.24623482304555
  H   -2.00263987349854      1.13637686402487      0.10027862771631
  H   -2.32507735627768      0.42296448731355      1.68039193843776
  C   -4.74461541876819      1.80986154102174      2.06269359911494
  H   -3.81855886733074      2.73226685053574      0.36138731477247
  H   -2.83304064754490      2.79734046191394      1.83301531034060
  H   -5.21769038156545      2.70725039052113      2.46654131570085
  H   -4.45016521783037      1.17327632517460      2.89997663566924
  H   -6.51847619491056      0.58409490600427      1.76922400066496
  H   -6.23484942075683      1.75273931869024      0.49045602996806
  C   -3.10768304907093     -1.14732326623321     -0.68230437545618
  H   -3.85754992309245     -1.87093114687666     -0.98787927291089
  H   -2.31919508262096     -1.65708545128797     -0.12891102380337
  H   -2.66687688181057     -0.70080806664181     -1.57435067580193
  O   -5.94175176750376     -0.92142099235655     -0.27421758850521
  S   -7.17832942026282     -0.14206539319378     -1.22425061992366
  O   -8.28383667021515      0.81746563500911     -2.86370619179962
  O   -8.38987573626446     -0.27051450695756     -0.39751692966898
  C   -7.20875533064932     -1.63239612545285     -2.30320147307145
  H   -6.38725409998272     -1.53621084573417     -3.00030107993672
  H   -8.15609791898415     -1.64996171598882     -2.82314560571598
  H   -7.08711313004561     -2.49880104347642     -1.66649053146416
  C   -6.48173931391785      4.47530395368128     -3.33477999418953
  B   -5.64708633922809      1.84543358982043     -3.23118842632207
  H   -5.09968636981659      0.96956274721702     -2.64405546786212
  B   -7.92483527394447      3.58235133597992     -3.45157206524970
  H   -8.91280664117980      4.03159958423582     -2.96557478235873
  B   -5.45969189980468      4.30450451478026     -4.68549791143907
  H   -4.82230015029296      5.24672101934811     -5.02163445371787
  B   -6.60262594424005      3.07271141625665     -2.38855001910997
  H   -6.74374750479399      3.19770031424340     -1.21430728827019
  B   -7.21376859382234      4.34729139901811     -4.87095857460947
  H   -7.72533132026767      5.31723008141199     -5.32392913062813
  B   -7.80584729983143      2.68952928947811     -4.98083779921662
  H   -8.77447120248826      2.40463406288170     -5.60691015057152
  B   -4.93481625151283      2.61347820276255     -4.66705689699533
  H   -3.87557095931700      2.28958018516544     -5.09599425303206
  B   -6.26317053190680      3.13563022997604     -5.74223840617168
  H   -6.13533454183617      3.17616366580967     -6.92213521513662
  B   -5.08235243536866      3.51582421765578     -3.15284196406237
  H   -4.19851595973245      3.94348878241166     -2.48626924344173
  B   -7.41724539033461      1.89432040466495     -3.43220361650494
  B   -6.38905443747353      1.60653923871984     -4.84179609517674
  H   -6.35923340183803      0.55205490918386     -5.39009510743831
  H   -9.04310163169469      1.17469438992332     -2.40562766557304
  H   -6.51368836957668      5.43797690016733     -2.83288564171514
