50
Coordinates from ORCA-job surface_scan
  C   -5.45765840031113      1.24298741733246      0.73821490777233
  C   -4.86805385027020     -0.05590360368665      0.25224505477165
  C   -3.60064143901797     -0.41304382922091      0.47169114830739
  C   -2.65326192933565      0.45523098577662      1.25835830352712
  C   -3.14828716577739      1.89232897953369      1.37918394584265
  H   -1.67409979429354      0.43764863607965      0.77215282542524
  H   -2.52402561473835      0.02749408654418      2.25972311449619
  C   -4.60476120420775      1.88773124663740      1.82559584722535
  H   -3.07679798070068      2.38683248281397      0.40841651450017
  H   -2.52942056593755      2.44194589571189      2.09215479594982
  H   -4.95563245239565      2.90503184021228      2.01123114572752
  H   -4.69841744089024      1.31908117150103      2.75341745016707
  H   -6.47207364301138      1.04584527089310      1.09523082959068
  H   -5.54208714683844      1.91774460805273     -0.11894011367685
  C   -3.03315711596948     -1.71461370513918     -0.02074657992494
  H   -3.80809326406368     -2.28793266546891     -0.52103496691208
  H   -2.63863363878699     -2.29938123441303      0.81111999047895
  H   -2.21901047578938     -1.53264655209798     -0.72336122636119
  O   -5.71353975132494     -0.87784221966779     -0.44803119515052
  S   -7.02826328957390     -0.09964361238641     -1.31011939431046
  O   -8.25577182261634      0.85746078694143     -2.84276627489326
  O   -8.18838853577030     -0.32014366734159     -0.43236122266386
  C   -7.03071388398842     -1.54719029353151     -2.44374676454997
  H   -6.19540896060526     -1.42248058488245     -3.11949273813057
  H   -7.96690638514728     -1.55212778422977     -2.98354355547945
  H   -6.91591889904129     -2.43551736192980     -1.83692103225349
  C   -6.80682503386402      4.64693963232075     -3.46270800776396
  B   -5.72357568227701      2.11367362555182     -3.27333787237758
  H   -5.08532434742641      1.31505088254602     -2.66433160884268
  B   -8.15903300311092      3.61722173154408     -3.53450115668885
  H   -9.18220584881425      3.98749907584061     -3.05581088804552
  B   -5.78084338213305      4.52559012463450     -4.81588433850069
  H   -5.23810504861093      5.51113585708361     -5.19120160079194
  B   -6.78884409235992      3.27483981340786     -2.46479411156650
  H   -6.93714809921290      3.42890824642452     -1.29545514334856
  B   -7.53238997410383      4.39447718658382     -4.98648430988887
  H   -8.13684096898850      5.29403170390417     -5.46875286027647
  B   -7.96405483612875      2.68417853887515     -5.03119377112738
  H   -8.90441982131071      2.28560230331877     -5.63742064495903
  B   -5.09774701176420      2.89365938266656     -4.74255039403872
  H   -4.01525110790936      2.65536564402169     -5.16917716001581
  B   -6.47596601040369      3.24729622773227     -5.82243635835192
  H   -6.35935379961538      3.25607504783219     -7.00399552089899
  B   -5.32152025960193      3.83250387329641     -3.25939850789586
  H   -4.47896685428823      4.36366575339922     -2.61407366836662
  B   -7.49230125894562      1.98694614386717     -3.45708368429100
  B   -6.45076756650814      1.74635054993783     -4.86590326913660
  H   -6.32316936564960      0.68115512663643     -5.37770130412338
  H   -9.01044378539525      1.16679755569589     -2.34365812399452
  H   -6.92750819117380      5.61939967884344     -2.99460650418369
