50
Coordinates from ORCA-job surface_scan
  C   -5.43908389670801      1.25367535987139      0.73482111491663
  C   -4.87410932604308     -0.06416683652524      0.24709768818205
  C   -3.60575054997052     -0.42283990191877      0.48594517743878
  C   -2.65756607727392      0.42962804972546      1.28861537939759
  C   -3.13477925988409      1.87191810135531      1.41429863773186
  H   -1.67292987375853      0.40377633268893      0.81304623446573
  H   -2.54224718781965     -0.00469472454052      2.28946107766075
  C   -4.59701550752370      1.88009567223428      1.83987625193009
  H   -3.04357297266998      2.37361476742450      0.44884264685293
  H   -2.51906832249863      2.40800418149509      2.14042478031032
  H   -4.93954392219686      2.89976403334613      2.02964293605717
  H   -4.71036821636046      1.30449196765512      2.76128529106358
  H   -6.46424240072642      1.07662628517565      1.07210929949633
  H   -5.49268209141266      1.93273039829298     -0.12158417574202
  C   -3.04381786814177     -1.73167949673340      0.00181202871404
  H   -3.80993794181289     -2.28694356571639     -0.53188544670407
  H   -2.69097258524411     -2.33350076289382      0.84088362164742
  H   -2.20077494042090     -1.56024890164764     -0.66909726840423
  O   -5.69012957456314     -0.84118580068739     -0.42943717397454
  S   -7.02249575700113     -0.07570256335068     -1.31205472837015
  O   -8.24557528939851      0.85573359381196     -2.84205959088884
  O   -8.18013754367928     -0.31638403508127     -0.43899339985931
  C   -6.99190389598852     -1.52445342752657     -2.44230053019657
  H   -6.15441725972935     -1.38634963925904     -3.11263545830030
  H   -7.92383702768248     -1.54842333693013     -2.98888940852352
  H   -6.86530871245291     -2.40889617686210     -1.83242960325525
  C   -6.81465600736460      4.64972803524432     -3.47391895244282
  B   -5.72448505906503      2.11820366648200     -3.29742892564464
  H   -5.08078965627658      1.32012255766612     -2.69349998277233
  B   -8.16562034919225      3.61743277668597     -3.53289156845803
  H   -9.18494989984228      3.98384863127613     -3.04394510113217
  B   -5.80206211686283      4.53118858912835     -4.83709593545616
  H   -5.26510185063620      5.51793854088165     -5.21720697820298
  B   -6.78388816493922      3.27754542722187     -2.47712100266938
  H   -6.92104188672711      3.42812662666908     -1.30634454082140
  B   -7.55521323670386      4.39637504564694     -4.99055829348191
  H   -8.16574242866720      5.29481374024652     -5.46675481982905
  B   -7.98325547438788      2.68485060822279     -5.03270588322440
  H   -8.92855031485289      2.28459273901758     -5.62953580623768
  B   -5.11407811973866      2.90079444999105     -4.77203828796860
  H   -4.03526936551864      2.66600509967103     -5.20944001150722
  B   -6.50401797173345      3.25244464269747     -5.83822217750053
  H   -6.39897275695447      3.26330542999807     -7.02066037750254
  B   -5.32557843441922      3.83792842318566     -3.28572145346439
  H   -4.47751255803854      4.37022024346325     -2.64879045700502
  B   -7.49259511094077      1.98995440255939     -3.46563518281818
  B   -6.46496958684014      1.75073086885888     -4.88454494345492
  H   -6.34092545680688      0.68603803679086     -5.39741448268264
  H   -9.01765414015677      1.15867520699671     -2.36568185793280
  H   -6.93243205237266      5.62180663799373     -3.00442835943637
