100
Coordinates from ORCA-job ./surface_scan.026
  C   -2.87667784236842     -1.11502284952989     -0.60753143430670
  C   -3.20148569998006     -0.49258299715285      0.64933480914649
  C   -3.64908452330102     -0.85259675579003      1.80559820124989
  C   -3.94774804037149     -2.35042101216573      1.94236941910380
  C   -4.01493687226713     -3.02681506796411      0.57546453189888
  H   -4.89637496637732     -2.46070987694023      2.46931477149924
  H   -3.15687789393527     -2.79243297640426      2.55478484364056
  C   -2.83127249600016     -2.63500328903693     -0.30606329241681
  H   -4.94185147840553     -2.73498919371003      0.08036331452986
  H   -4.03203551543233     -4.11068645328641      0.71006896148932
  H   -2.85676763705651     -3.18351342631168     -1.24821243139611
  H   -1.89812848314773     -2.87062690607094      0.20891211113582
  H   -1.91587885695679     -0.76860457232035     -0.99054687321683
  H   -3.63742708335031     -0.88958317419735     -1.35867112873335
  C   -3.89115988925311      0.01285309502951      2.99613015613853
  H   -3.59386563987227      1.03161428290743      2.76369909191645
  H   -3.31396880390391     -0.34720242112776      3.84680878743985
  H   -4.94502163168658     -0.01189525173495      3.26952825572377
  O   -3.14270289533948      2.13325030228396      0.54477844347150
  S   -3.42873230349505      2.43149407664726     -0.90919413066561
  O   -3.29278241004873      2.72979982636008     -4.14305904067147
  O   -2.20266308690189      2.22305486918205     -1.76011183296540
  C   -3.50964351938773      4.30522481468823     -0.80964682274993
  H   -4.33233971144717      4.56547727178587     -0.15450068274718
  H   -3.67528781612120      4.69022376791331     -1.80835382668895
  H   -2.57311192160113      4.66837390054900     -0.40412995991347
  C   -6.18701291373334      0.70094358892204     -6.12070606907114
  B   -5.33024166196697      0.82036634442000     -3.50287334483210
  H   -4.79268447641999      0.31596436654583     -2.57842245870097
  B   -5.14267736073493      2.04449337455612     -6.10937096717620
  H   -4.50034817471709      2.26947334827315     -7.07053686960127
  B   -7.61739337566291      0.92388278254945     -5.22476957618783
  H   -8.61270596294460      0.41939450107663     -5.61924667289054
  B   -4.79356055215841      0.55852512462187     -5.17243506298233
  H   -3.91352499378565     -0.13745217056039     -5.53213836694006
  B   -6.89356598624189      2.24714464696432     -6.13965068719306
  H   -7.42203174003702      2.61525061206466     -7.13194478351007
  B   -5.90468533122246      3.21192505174097     -5.03858925108047
  H   -5.75185303349603      4.37901644777588     -5.16437894740984
  B   -7.09988994727056      1.03963618715275     -3.54044678416124
  H   -7.79879162184815      0.69760863722978     -2.64296030832707
  B   -7.44078110065286      2.52278078008845     -4.47493152623778
  H   -8.37141869576299      3.22328028258380     -4.22819489562055
  B   -6.32261793772753     -0.11590307556428     -4.62116863452377
  H   -6.46517488075323     -1.29042998030512     -4.63290362033770
  B   -4.54941990132909      2.17147013039563     -4.41205936516937
  B   -6.03143341163628      2.44378126415394     -3.40480447645732
  H   -5.95097279203168      3.09047615140054     -2.41083051069003
  H   -2.87140603320600      2.45937000290127     -3.30310696079623
  H   -6.24361559731878      0.11162679385511     -7.02823264016844
  Cl  -2.96958357311171      5.92719231153029     -6.52204953237833
  C   -2.77723673134244      5.62031330497564     -4.79294404414087
  Cl  -3.92119095805757      6.59131729616003     -3.86331283923222
  H   -1.77254592317420      5.92173711528006     -4.50030542529762
  H   -2.97737989361668      4.55687372145909     -4.59959272389777
  Cl  -10.73685882819424      3.83798998621776     -1.39858029337527
  C   -9.35210687345434      2.83245633839308     -0.94180083809551
  Cl  -9.88064166770535      1.20965102271506     -0.49399145576467
  H   -8.86808533015320      3.28087832136050     -0.07468163882832
  H   -8.68256257896753      2.74654175814904     -1.79955791220970
  Cl  -7.88688269246850     -3.19217811708103     -0.70147422370213
  C   -8.45512961512165     -2.01390114413899     -1.88504420319470
  Cl  -9.70743997246375     -2.70694170608303     -2.92217886360951
  H   -7.61219768511496     -1.71288934753959     -2.50686376510524
  H   -8.88085152788440     -1.16952016667198     -1.34440670623732
  Cl  -7.81481481833078      7.08280260355885     -6.19496553425886
  C   -8.71004944041796      5.56208368034970     -6.30576620733698
  Cl  -9.57411211563939      5.44637563122757     -7.84088340959073
  H   -9.44453506750632      5.53167989845725     -5.50206009226564
  H   -7.99999743869063      4.73620453171961     -6.24736675808101
  Cl  -7.04864914146247      5.43497042206990     -0.79586604927102
  C   -7.16028623491096      5.92742253034629     -2.48724987653972
  Cl  -8.82301640125670      6.36297058525433     -2.89348677526684
  H   -6.85486592829389      5.08542284806129     -3.11092407131166
  H   -6.52410630169119      6.79927482512097     -2.63422016093140
  Cl  -11.70484619292425      0.16907172392979     -4.88612541934399
  C   -11.10417785000802      1.57977031294427     -4.00285163812525
  Cl  -11.37328618246810      3.06627413292084     -4.92257562569905
  H   -10.02933088421965      1.46049345002084     -3.86023773839142
  H   -11.65071622413533      1.65516874773929     -3.06425606799466
  Cl  -0.29986955382131      5.62994786352813     -2.06037112814776
  C   0.04558026743590      3.94484932327327     -2.47166105102509
  Cl  0.36445563121612      3.78526900471764     -4.20346331100082
  H   -0.82541159795719      3.31871518647539     -2.20878219367134
  H   0.94364065728784      3.64836261579252     -1.93205438527283
  Cl  -12.05733028133595      1.43894046867463     -8.26460902589246
  C   -10.34428215673854      1.81111854562057     -8.03922429143422
  Cl  -9.38022985636324      1.19640026343232     -9.38487488169703
  H   -9.99815240523584      1.32958968163712     -7.12517559413167
  H   -10.22966618603169      2.89417025530601     -7.99864779950077
  Cl  -10.31402344148990     -1.66645645681052      3.07546567134498
  C   -8.77360818455925     -1.20455670409906      2.33574645411715
  Cl  -7.44563409510794     -1.40730829520058      3.47133458969967
  H   -8.82460815088862     -0.15373232267465      2.05286548148858
  H   -8.58713147339143     -1.85390997967170      1.48098508487744
  Cl  -7.17814837565614      2.05482863329477      1.74156873878908
  C   -6.11805264154064      1.42210130647375      0.47777195985831
  Cl  -6.47376183491641     -0.26784452171865      0.16160487725097
  H   -5.07829479460198      1.51120368885038      0.81148010435766
  H   -6.30053295281425      1.97911964828089     -0.44092087223321
