26
Coordinates from ORCA-job surface_scan
  C   -5.99456355802357     -0.53642135385888      0.64076637899655
  C   -4.62060206662578      0.03886335322824      0.78688632182170
  C   -3.49990828449428     -0.51338287014541      0.33005237099167
  C   -3.53208142075643     -1.83272604804304     -0.39513183481729
  C   -4.84334679422443     -2.58354764160288     -0.18758247357145
  H   -2.69267177443948     -2.44593979637378     -0.05913778911569
  H   -3.38167341665580     -1.64359393014115     -1.46353598100849
  C   -6.01881468072961     -1.64022868529404     -0.41236727636055
  H   -4.88362788779098     -2.96964314184275      0.83219260805330
  H   -4.89498649358713     -3.43138353510474     -0.87291154031668
  H   -6.96263601472588     -2.18353250500734     -0.35426236503875
  H   -5.94444126503964     -1.20059690957302     -1.40877383524311
  H   -6.68097350941533      0.27177126988948      0.38258337107742
  H   -6.31066586287558     -0.93391235918882      1.61039760308503
  C   -2.14546005208773      0.10784142077368      0.49877145903472
  H   -1.71652178915307      0.35640367219054     -0.47253764524090
  H   -1.47239450707018     -0.59621815694886      0.98628015381808
  H   -2.20710431960158      1.00538467156930      1.10660700890739
  O   -5.00727682039137      3.67819145681359      1.91104507281270
  S   -5.15758152546034      2.64363720376129      0.92879939388232
  O   -6.46559000020798      2.41835613352659      0.39031972418673
  O   -4.55856924806353      1.25670466532672      1.50820888679223
  C   -4.03206440551469      2.97815769617349     -0.44225117075721
  H   -4.42474024028350      3.83647783978690     -0.96924182577551
  H   -4.01754045263129      2.10573213828198     -1.08050593011444
  H   -3.05696361015053      3.19031541180284     -0.02883068609976
