26
Coordinates from ORCA-job surface_scan
  C   -5.99169528867537     -0.53956097981674      0.62642831396190
  C   -4.61538078055515      0.02625800093986      0.77203036810338
  C   -3.49411186629530     -0.52898165593706      0.32311765441606
  C   -3.52927966175041     -1.85620169369102     -0.38759880956050
  C   -4.84509817767124     -2.59867322114896     -0.17795278042380
  H   -2.69429337115509     -2.46956624902993     -0.04096079031480
  H   -3.37302700341303     -1.67908213246193     -1.45719015040914
  C   -6.01601034276854     -1.65290930128595     -0.41686287004881
  H   -4.89126985675841     -2.97450578819099      0.84542052647093
  H   -4.89770666642823     -3.45308745283247     -0.85500927094760
  H   -6.96214623513347     -2.19207067542718     -0.35805602222502
  H   -5.93525271366649     -1.22278716100479     -1.41691071478738
  H   -6.67131745870369      0.27115660392221      0.35768090307672
  H   -6.31552156674505     -0.92602573082886      1.59791022832826
  C   -2.13962664909382      0.09298799717551      0.48527709904448
  H   -1.71074628722123      0.32963233171435     -0.48901358095731
  H   -1.46688089206810     -0.60522445557024      0.98152102010434
  H   -2.20164850171015      0.99803820502815      1.08173282951609
  O   -5.02194513477709      3.71606026739385      1.92043815537019
  S   -5.16165877448393      2.66725916442536      0.94291583129987
  O   -6.47039899277927      2.43467793729133      0.40823387229751
  O   -4.55057987929478      1.26002235970624      1.48837737130402
  C   -4.04098030224274      3.01824255281996     -0.42893831828818
  H   -4.43391950994089      3.88306818061798     -0.94502020526718
  H   -4.02736283425645      2.15287469601451     -1.07676700236385
  H   -3.06494125241180      3.22510820017676     -0.01496365770019
