26
Coordinates from ORCA-job surface_scan
  C   -5.98861525158267     -0.54286837392289      0.61207310506452
  C   -4.61010646029302      0.01383027537590      0.75727058676304
  C   -3.48817576410709     -0.54442827298575      0.31673538899939
  C   -3.52627536790153     -1.87911335046669     -0.38000042793622
  C   -4.84667541157983     -2.61330328299516     -0.16912014344709
  H   -2.69588423670920     -2.49263327299097     -0.02270676676708
  H   -3.36387121026149     -1.71360757521519     -1.45050987733333
  C   -6.01293004862654     -1.66513713442098     -0.42188121707259
  H   -4.89896055024360     -2.97940662662124      0.85750187037494
  H   -4.90014977965374     -3.47382667709675     -0.83835072512224
  H   -6.96137011622282     -2.20018798231359     -0.36280934852964
  H   -5.92568484510215     -1.24406459749903     -1.42522816997135
  H   -6.66190080800274      0.27002246419195      0.33345281583374
  H   -6.31963615426942     -0.91894797335559      1.58515302417861
  C   -2.13355146019578      0.07776614037874      0.47329186130548
  H   -1.70360366995774      0.30174440218135     -0.50349870973830
  H   -1.46196205132996     -0.61451692059937      0.97928813565824
  H   -2.19623832870262      0.99048348959156      1.05776967746771
  O   -5.03320938186713      3.75444488299042      1.92983566887076
  S   -5.16520956921646      2.69142974224849      0.95748232200093
  O   -6.47579386754421      2.45276274061335      0.42910900798963
  O   -4.54252004478890      1.26364003454604      1.46864379012396
  C   -4.05141306589705      3.05715940600803     -0.41715364925164
  H   -4.44455182376606      3.92897066751677     -0.92126157296601
  H   -4.04114798185025      2.19906040790698     -1.07464754891199
  H   -3.07336275032771      3.25743738693359     -0.00459909758349
