26
Coordinates from ORCA-job surface_scan
  C   -5.82939629935643     -0.32520398765057      0.33835282563440
  C   -4.38873044020816      0.05957282147884      0.19507655003813
  C   -3.39815960310201     -0.78162232654531     -0.09036275760737
  C   -3.65819284755057     -2.25265042666825     -0.27712381055546
  C   -5.00039880895493     -2.67811566981454      0.30715726441944
  H   -2.84733441644197     -2.81691335832345      0.19008885563438
  H   -3.63427588366715     -2.48162546597205     -1.34753371338544
  C   -6.08851338766349     -1.73447329567424     -0.18824312902490
  H   -4.95470481114137     -2.63601218263656      1.39667158937496
  H   -5.22323134533293     -3.70615141751461      0.01575552497056
  H   -7.07162706322701     -2.07303664877775      0.14122193002799
  H   -6.08289120680864     -1.72309813656986     -1.27949803749238
  H   -6.43881473324939      0.40299359713325     -0.20026157999524
  H   -6.10716147346002     -0.25205405473308      1.39472757516027
  C   -1.97134466304408     -0.34566451572147     -0.24362982357694
  H   -1.56929422561422     -0.71038761129515     -1.18821618408366
  H   -1.36171284730598     -0.75771045352398      0.56048707687768
  H   -1.89853757416589      0.73708064993507     -0.21763205519325
  O   -6.03273230678958      2.41265843851843      1.60937704439320
  S   -5.22076277813344      2.54129220588014      0.44034916667100
  O   -5.88199098542628      2.61431836390212     -0.82596864275248
  O   -4.08598196983604      1.40742869448485      0.41724666724148
  C   -4.09664476307650      3.92881803520798      0.62831785977781
  H   -4.69246420160360      4.82771616626386      0.71239121461256
  H   -3.46732290286456      3.96034810578956     -0.24952215913191
  H   -3.52057846197557      3.75920247282672      1.52661074796518
