26
Coordinates from ORCA-job surface_scan
  C   -5.89152924333246     -0.49031822721520      0.76544781200256
  C   -4.48999698869156      0.01335064378411      0.59205094075666
  C   -3.49032646801887     -0.67872325806776      0.05504370963784
  C   -3.68785682889818     -2.09748437273509     -0.40635466026929
  C   -4.97799084314701     -2.71362350863756      0.12494832565087
  H   -2.82900009230706     -2.69887383588487     -0.09751695757621
  H   -3.70461103042538     -2.09821414149306     -1.50078949150267
  C   -6.13234948161083     -1.73930260441902     -0.07612786924540
  H   -4.86956658483689     -2.92771033310673      1.18984214270171
  H   -5.17667824934912     -3.65486443446564     -0.39072063751089
  H   -7.07947021251845     -2.20057342280151      0.20731414593715
  H   -6.18983462249092     -1.45867565840559     -1.12875078403756
  H   -6.57626329598449      0.31253391547045      0.48269526799419
  H   -6.06342771614870     -0.70599064254454      1.82550569638648
  C   -2.11669178357754     -0.11293542400666     -0.14549083467419
  H   -1.87690163234343     -0.09262540689613     -1.20820167010462
  H   -1.37431744857707     -0.73437259326844      0.35457422084330
  H   -2.05581697897100      0.89589835189775      0.25146828107815
  O   -6.31262037550565      2.76492016230287      0.89437350647851
  S   -5.09299351693369      2.45000700034483      0.21938885490933
  O   -5.16830342578055      2.07050552230893     -1.15671070458790
  O   -4.28475372476461      1.32260538271612      1.04027816505486
  C   -3.92784513551342      3.80315325425180      0.43688493463180
  H   -4.40192629739983      4.71163897942198      0.09101208853360
  H   -3.04736613046556      3.57585416606342     -0.14698207143686
  H   -3.70436189240750      3.86053048538548      1.49265758834859
