50
Coordinates from ORCA-job ./surface_scan.037
  C   -7.88875618993681     -1.24881795737504     -0.17955116810758
  C   -6.59431155868342     -0.67634400251575     -0.62175908891170
  C   -5.61680551174068     -0.27666735833392      0.19055480253735
  C   -5.79813238451638     -0.35469539899707      1.68386939463486
  C   -7.22884607405443     -0.54578908476817      2.11681168663356
  H   -5.39893601037199      0.55896379132950      2.12710780720093
  H   -5.17809166491161     -1.16362967509133      2.08106705500246
  C   -7.88301124559109     -1.63164398732808      1.29272533108266
  H   -7.77307356190900      0.38552996504055      1.97347625463721
  H   -7.26782178215917     -0.77995319231794      3.18588931053564
  H   -8.89675426061162     -1.82175884432148      1.63525176247923
  H   -7.32458471966825     -2.56015618410962      1.42077897405578
  H   -8.09670285752550     -2.10885148756713     -0.81162304335449
  H   -8.67651084438127     -0.52746393586683     -0.38883073652556
  C   -4.29474324038640      0.23377080586137     -0.25418729231391
  H   -3.52981916745394     -0.54260836333417     -0.12409312796799
  H   -3.99580324963375      1.08653396143055      0.36660552117625
  H   -4.28059244161294      0.55943175719439     -1.29862878638050
  O   -5.70356692564589     -2.89352954973076     -2.83527262639411
  S   -5.38066109472364     -1.45802077277378     -2.84252927310203
  O   -7.25875721888329      1.97158682488806     -3.72683425820936
  O   -6.54356750543135     -0.58365937245664     -2.01276035754930
  C   -5.94466252625689     -0.84935466427765     -4.44669327663977
  H   -5.10433919144986     -0.95560474600722     -5.13623996411690
  H   -6.27883894980240      0.19066363492274     -4.41143034678210
  H   -6.76365889794263     -1.51973936540821     -4.73957580623464
  C   -4.96132113552628      4.89112187583788     -2.11428931829921
  B   -4.50525163714283      2.51166405839636     -3.37629506261464
  H   -4.18338004636358      1.36575450636102     -3.32746764990938
  B   -6.48126985064121      4.49084654969516     -2.73360810072716
  H   -7.45848656735115      4.80094445006393     -2.12811257759453
  B   -3.78843665648540      5.27132472381721     -3.27703051076737
  H   -2.98606739507793      6.11456587500949     -3.03235958737031
  B   -5.40868755532667      3.26225855568892     -2.05834436590970
  H   -5.69615568075673      2.76659323826769     -1.01551432580660
  B   -5.48024173002857      5.72884055385262     -3.49415100219727
  H   -5.79048848843587      6.87373727583553     -3.39203293370586
  B   -6.26883044425887      4.49822852047121     -4.48577984965454
  H   -7.17467209892160      4.77434151224561     -5.21043182124686
  B   -3.50421013991862      3.75752768509698     -4.13691803263782
  H   -2.43954450949170      3.51169104644647     -4.61637302881213
  B   -4.59408741143447      4.98546386766162     -4.82592650878291
  H   -4.30095855066926      5.61978403095665     -5.79353003797941
  B   -3.73894935454326      3.74215213071650     -2.38698539551719
  H   -2.90703874817695      3.57574877174077     -1.55127268956307
  B   -6.23368267941008      2.94876268488905     -3.59669843039743
  B   -5.04194689794051      3.27130800363605     -4.88400041378720
  H   -5.08171789319428      2.65691283643820     -5.90717893909802
  H   -7.33315778084413      1.44666908418363     -2.92239542255207
  H   -4.93169669214061      5.43282545195220     -1.18222145965206
