76
Coordinates from ORCA-job surface_scan
  C   -6.68033209911386     -0.95922356876928      0.23074305694058
  C   -5.52857660616737     -1.81860455986045      0.59562005871892
  C   -4.94157355897013     -2.76859273307732     -0.12159193531232
  C   -5.50524043523528     -3.08214325540087     -1.47763348087254
  C   -6.96163035899670     -2.65185745605093     -1.60200284004464
  H   -5.40056850325121     -4.15214022611838     -1.66235240129422
  H   -4.90514730510054     -2.56654616728560     -2.23105897950009
  C   -7.08954524139439     -1.18406855195658     -1.22690957391186
  H   -7.58162381860570     -3.25598276115580     -0.93672275177817
  H   -7.29686458347171     -2.80596311879575     -2.62723991165259
  H   -8.11370984690697     -0.83893148698441     -1.36453172613757
  H   -6.45301327430172     -0.58610786825933     -1.87616008771818
  H   -6.39617575309980      0.08882047835513      0.36629084570411
  H   -7.52031189618387     -1.16924489550338      0.89862131451729
  C   -3.76939582337897     -3.58841599566708      0.29903134758883
  H   -3.28417921921181     -3.21126107806163      1.19461792935874
  H   -3.04731213907954     -3.62036967069648     -0.51466424495017
  H   -4.09612342520021     -4.61030801192825      0.48910073345501
  O   -5.15170265750333      1.76110752460698      0.53539463180505
  S   -5.38289563556034      2.65771432755706     -0.62026889899524
  O   -6.44700099014575      2.17756292187218     -1.47059618247153
  O   -4.14108344075526      2.92935201230785     -1.33758094164461
  C   -5.91198613246346      4.23652028517055      0.05921604591588
  H   -6.84073362898417      4.09331867869966      0.59194771082756
  H   -6.05206944033614      4.89305813096872     -0.78756464573502
  H   -5.13754372023713      4.60402872370598      0.71682820882199
  Cl  1.18127155370540      1.09883470212134     -0.27219854452010
  C   0.98968949013842      0.87491294831705      1.48000111218526
  Cl  -0.27793161006241     -0.29752432322871      1.82577653470042
  H   0.70309737692461      1.82868681964372      1.92373357384554
  H   1.92046633449443      0.48984500520012      1.89425442549781
  Cl  -5.26165061511385      1.05104485819318     -3.57125979794370
  C   -4.71128700235609     -0.14517480333056     -4.81611194943180
  Cl  -5.78068736565176     -1.54036847846070     -4.87627175704219
  H   -3.71730099394373     -0.50328779492093     -4.55495232878518
  H   -4.72554637695999      0.33041527740951     -5.79461518659934
  Cl  -2.15965917270950     -2.01676296693216     -2.59100564868039
  C   -1.72731135587757     -0.59101375766117     -1.65879264615244
  Cl  -3.19445100020637      0.27735389115014     -1.05640642330216
  H   -1.17312494490622      0.07959542127453     -2.31458164366744
  H   -1.12861019794645     -0.91186132584122     -0.80831555565892
  Cl  -0.63977588668483      2.91100916034915     -2.32125032334326
  C   -2.00323739171654      2.94099625093134     -3.43714263907937
  Cl  -1.83182557990973      1.66881393226087     -4.64960396497626
  H   -2.00234434730598      3.90243649331722     -3.94891292774969
  H   -2.91844869932533      2.77980274609066     -2.85983793963809
  Cl  -3.08361355112407      6.91235283949243      1.13916819954531
  C   -2.34580454560829      6.82831684517824     -0.46501369851238
  Cl  -3.11433781277486      5.54296874149230     -1.44386367272684
  H   -1.29132381291228      6.58674753651886     -0.34207837803143
  H   -2.49530341435670      7.78507327265788     -0.96098404758023
  Cl  -6.71207061654407     -2.32345552016823      4.98645714293051
  C   -8.04549925673469     -2.70296280118816      3.88691684462030
  Cl  -7.46705776840245     -3.63651484695584      2.50316552027104
  H   -8.47665624815970     -1.77097888343220      3.51869737902342
  H   -8.77429919523009     -3.30848018731573      4.42345007284372
  Cl  -6.94370701848146      0.76560576180382      3.75736027182248
  C   -6.32445562231515      2.33824151043035      3.26350245059362
  Cl  -7.57767163883982      3.57921368419791      3.39936916926272
  H   -5.99882726317771      2.26334379137921      2.21962248362341
  H   -5.50698335768466      2.60744594487377      3.93138847936199
  Cl  -9.79786606391884     -0.09570736041780      1.91178035691903
  C   -9.78232072146309      1.57273344207572      1.37125603706789
  Cl  -8.43576950118686      1.87108459767146      0.19291564674750
  H   -9.63712922727610      2.20169774274559      2.24830789785591
  H   -10.73461321400154      1.76695540174590      0.88120635068123
  Cl  -3.43683006668747      0.34998509715628      3.79679803890839
  C   -3.78611734544523     -0.17367748702830      2.16647809319030
  Cl  -4.97227513886013     -1.52761911837481      2.26177162109215
  H   -2.88149030088368     -0.57024630949633      1.70331745788348
  H   -4.26102074753615      0.63053315053363      1.57260240092704
  Cl  -0.72464792800391      3.94625258291681      0.86453541126427
  C   -2.18732830664359      2.96236737469808      0.88562506431107
  Cl  -3.18859682822195      3.38150974339804      2.27231428278167
  H   -1.89403735015266      1.91809800557795      0.98253996930076
  H   -2.77196881830302      3.13330971427722     -0.02613649727221
