50
Coordinates from ORCA-job surface_scan
  C   -7.78490016383323     -0.98369697833161     -0.03103955442527
  C   -6.35258515468726     -1.18330050478205     -0.14797131834576
  C   -5.31472207464489     -0.54046808251177      0.29142553892601
  C   -5.58053340476216      0.62062374245900      1.25443378621158
  C   -7.01309556174937      1.12684972153273      1.09841229800076
  H   -4.87119538659058      1.42120087108301      1.03700881062000
  H   -5.40385824110930      0.27647889530200      2.27976459438145
  C   -8.01915779856821     -0.01981409019227      1.15357528915299
  H   -7.10601467466634      1.62547273895715      0.13305358141128
  H   -7.23435158767650      1.85459416076246      1.88542363040855
  H   -9.03920265256982      0.36779587266961      1.11017403057869
  H   -7.89882897711818     -0.56686694865757      2.09282894184967
  H   -8.31385374259758     -1.92509417408881      0.13335287170063
  H   -8.13940642531897     -0.55260756665908     -0.97185967259004
  C   -3.88983663978045     -0.83923407885465     -0.05099176523851
  H   -3.86201672580756     -1.68362730287274     -0.73250973471380
  H   -3.31520880656599     -1.06996837083284      0.84751550640853
  H   -3.43887269303755      0.02321950874653     -0.53997303199425
  O   -5.81958636913314     -2.41326720679462     -2.34235941040811
  S   -5.82367348421280     -1.05636124535479     -3.00642990161201
  O   -7.02010426258750      1.72332449468788     -4.50673717970793
  O   -7.22097837134749     -0.52075154258344     -3.11785889766137
  C   -5.48929395082965     -1.58110193604644     -4.79915455275136
  H   -4.50569584859920     -2.03486781750066     -4.84231179119902
  H   -5.53427776302100     -0.68490128183001     -5.40630302102283
  H   -6.25380280216841     -2.28910130128785     -5.09509313292029
  C   -5.20233438217429      3.92848598504968     -1.59192099817967
  B   -4.38700151054553      2.52653701262833     -3.82110455338333
  H   -3.87675263701785      1.57520975443915     -4.30283412527914
  B   -6.65289626259687      3.56359774553987     -2.38876095489708
  H   -7.63535720141369      3.37481979732420     -1.75828402578110
  B   -4.20067843521438      5.02006067578681     -2.43693963096622
  H   -3.55738246484938      5.78652230648243     -1.80076593396146
  B   -5.33611197823107      2.40129482884104     -2.32687225279266
  H   -5.43342803320025      1.44781554771621     -1.64350113309899
  B   -5.96562435262376      5.17749477468767     -2.47464436128948
  H   -6.48928202297187      6.05011002434595     -1.86663271327495
  B   -6.56034939420091      4.43891819037971     -3.96575208106038
  H   -7.53910843341656      4.83643059759511     -4.49865649832693
  B   -3.69700783716186      4.15247292434614     -3.90069971157804
  H   -2.64881591721212      4.35136401387647     -4.41829749476062
  B   -5.02171698795058      5.34717693836877     -3.96273750593161
  H   -4.90969717801414      6.39024643932542     -4.51554959851113
  B   -3.81958118738571      3.29542413531115     -2.34219616631912
  H   -2.92258465150056      2.93258214507314     -1.65741526547113
  B   -6.21408186642233      2.66717180940843     -3.89262825057610
  B   -5.16472347576900      3.80744302319135     -4.84092858594582
  H   -5.13497697095946      3.74393501133463     -6.02236402790805
  H   -7.15603437131278      0.89388144985529     -3.99426342413328
  H   -5.22104790423698      3.98373537942129     -0.50741533883010
