50
Coordinates from ORCA-job surface_scan
  C   -7.70095672273059     -1.15159896390249      0.06203018483251
  C   -6.27267026466030     -1.20198184457837     -0.19090444597037
  C   -5.26018802706892     -0.49167963194756      0.20201852840821
  C   -5.53998089272635      0.56646914969459      1.27197087332441
  C   -7.02106147335784      0.94018779068225      1.28255564310353
  H   -4.92977289069367      1.44459147481249      1.05394174893523
  H   -5.23703683577767      0.17233667130053      2.24834158331894
  C   -7.90963766405238     -0.30025950252983      1.33376749372227
  H   -7.24979649731430      1.49492073335761      0.37151939302212
  H   -7.23234879843390      1.58580704265638      2.14055835414517
  H   -8.96031090892221     -0.01214709009327      1.41109982810502
  H   -7.65181801844076     -0.89735238440339      2.21266170569548
  H   -8.12434436054029     -2.14935487648814      0.19637552914721
  H   -8.17975628447905     -0.69234109332026     -0.80752431288685
  C   -3.85484617957077     -0.61590051789914     -0.29108720329849
  H   -3.79573626001387     -1.44815095950636     -0.98482650817023
  H   -3.16630213985615     -0.77586916336749      0.53971780527710
  H   -3.56937102081755      0.29687911860173     -0.81197984933973
  O   -5.84785778476291     -2.28841041378800     -2.35348585077070
  S   -5.91958020700656     -0.92159609752336     -3.01787476775077
  O   -7.05296632195405      1.78013833238213     -4.56270552492206
  O   -7.33632133204115     -0.44715066007332     -3.09503230514619
  C   -5.60214444473513     -1.45925134245100     -4.80531972786788
  H   -4.60407036885935     -1.87850406654403     -4.86046196204868
  H   -5.68916886846336     -0.57316314446497     -5.42262297366643
  H   -6.34626568910789     -2.19780600905223     -5.07773920683970
  C   -5.38739615254040      4.08442290289672     -1.63320913550850
  B   -4.44749122941293      2.41587881660942     -3.61414559487657
  H   -3.96984228839683      1.38555649964314     -3.94493641093657
  B   -6.76069353548390      3.77692212766371     -2.57695393166660
  H   -7.82268827692646      3.72662334202483     -2.05910597238780
  B   -4.19073332544232      5.00386452722758     -2.42809933534135
  H   -3.55687962328288      5.76804454758770     -1.77905181536835
  B   -5.57810405587960      2.51242050887568     -2.25543541217051
  H   -5.85513272010431      1.64161691036269     -1.51244095265220
  B   -5.91362014731176      5.30987310311875     -2.70462444510152
  H   -6.41763338212240      6.27743700062698     -2.23972664297703
  B   -6.39770423066143      4.48466530214853     -4.19145065162841
  H   -7.26009542693467      4.91702304235593     -4.87739511937019
  B   -3.60070496832608      3.96311078378130     -3.73720096012860
  H   -2.48378893741385      4.02356440677582     -4.13208713781744
  B   -4.78981266726840      5.25541590522444     -4.06806986265766
  H   -4.51038896991986      6.22770251296949     -4.68751643709481
  B   -3.99110865324610      3.26957210909733     -2.14388694731038
  H   -3.22116757804633      2.90202910111909     -1.31921030438853
  B   -6.23017876663703      2.70756355823824     -3.93008803832380
  B   -4.97157967433138      3.65737347684348     -4.82655445360294
  H   -4.80787903509498      3.48066663600704     -5.98570468043784
  H   -7.24133737143957      0.97705458881317     -4.03508321984835
  H   -5.53135774675468      4.24004582578180     -0.56780528796000
