26
Coordinates from ORCA-job surface_scan
  C   -5.94195576857264     -0.32247426473671     -0.14440608775575
  C   -4.50840157984570      0.10903798797598     -0.21128404038005
  C   -3.45950610576514     -0.70517711899945     -0.14737562241105
  C   -3.64495867983733     -2.19490833250015     -0.03886099491341
  C   -5.04262411298266     -2.56699570407258      0.44469994171292
  H   -2.89129983608037     -2.59427151630266      0.64363299111712
  H   -3.46197120562971     -2.64545539150647     -1.02021252387915
  C   -6.08414610880500     -1.82297075414173     -0.38181141910201
  H   -5.15097155685145     -2.28525745690288      1.49307768123258
  H   -5.18806715882363     -3.64581777568782      0.36343729450867
  H   -7.09075302794870     -2.14478327879357     -0.11168038863764
  H   -5.92978839911797     -2.04405641468686     -1.43978090099723
  H   -6.51593229410179      0.24879223686284     -0.87794052803983
  H   -6.32891944334791     -0.05110298928000      0.84301724948536
  C   -2.04124022530911     -0.22221884800343     -0.20705662629397
  H   -1.48867001432909     -0.77334007633170     -0.96709203915858
  H   -1.54995423373216     -0.38860084163475      0.75156718267602
  H   -2.00746863635976      0.83742774411418     -0.44158562644021
  O   -5.06279273148572      1.80821241373302      2.01777899282992
  S   -5.10083767768977      2.41795530979946      0.72464384090155
  O   -6.37538179538784      2.79659700811946      0.20169699058117
  O   -4.31901591465504      1.48958593390736     -0.33395198011147
  C   -3.98552298256854      3.82669784151198      0.66132203440389
  H   -4.42856814918745      4.63056245915899      1.23350830975529
  H   -3.88135886757546      4.10262836188318     -0.37827863865992
  H   -3.04269349400990      3.51664346651428      1.08877490757577
