26
Coordinates from ORCA-job surface_scan
  C   -6.05726470249962     -0.40462361153749     -0.29722549456437
  C   -4.65697148101969      0.12775166506140     -0.34669363178827
  C   -3.55476979013769     -0.59501645110996     -0.17973924735866
  C   -3.63458483259036     -2.08154575835607      0.03982548019061
  C   -5.01797246535145     -2.51498240964628      0.51337632736064
  H   -2.87871630426044     -2.36769115827337      0.77462261303580
  H   -3.38584662252296     -2.59274818564010     -0.89624613733433
  C   -6.08120441806432     -1.92628294594180     -0.40565129604683
  H   -5.18208892607533     -2.14994887520261      1.52814409427884
  H   -5.08188079064375     -3.60463859528496      0.52481976140007
  H   -7.07041656135654     -2.29991840108339     -0.13786964172146
  H   -5.87326901394156     -2.22449819140671     -1.43527222932487
  H   -6.63727835388233      0.05592594246417     -1.10086390037926
  H   -6.50067116369249     -0.07780650676090      0.64895786733467
  C   -2.17587080890862     -0.00661873543707     -0.21434824922020
  H   -1.52156295096567     -0.62159449198289     -0.83073121549385
  H   -1.75974418002752      0.02323986900807      0.79283380516696
  H   -2.19810674184090      1.00199293793140     -0.61736435157476
  O   -4.97123382972726      1.56796781435865      1.89831814906835
  S   -5.06086654328499      2.37896055068688      0.72437259267105
  O   -6.30787906633525      3.01014560674951      0.43269063474745
  O   -4.58110447652156      1.50929539640896     -0.54485895710759
  C   -3.75896153410255      3.62211019158284      0.72434405047879
  H   -4.02949778831512      4.38743619617386      1.43900304726051
  H   -3.70664007928274      4.02788368633835     -0.27587327315114
  H   -2.83839657464912      3.13191446089945      1.00726920207186
