26
Coordinates from ORCA-job surface_scan
  C   -6.09904721677373     -0.44018836263427     -0.31923621636901
  C   -4.71735860755052      0.13902369882752     -0.37149508484148
  C   -3.59311842349688     -0.54536793771299     -0.19029043445098
  C   -3.62454754825051     -2.02823093410468      0.06327150788476
  C   -4.99565260284557     -2.49778754377151      0.53753588852689
  H   -2.86446861466294     -2.27201918738858      0.80898399311687
  H   -3.35214815720731     -2.55133728230804     -0.85960705099439
  C   -6.07090104699146     -1.96335397460852     -0.40035570564842
  H   -5.17891148852361     -2.11697772767740      1.54312656069781
  H   -5.02332781675655     -3.58848805693725      0.57144328961760
  H   -7.04899577450592     -2.36501612030520     -0.13228855477303
  H   -5.84525985742383     -2.27357718125113     -1.42266755959351
  H   -6.68906882240136     -0.01399133305531     -1.13447197006865
  H   -6.55762342116145     -0.11340418737764      0.61939041881772
  C   -2.23261986725182      0.08465477457526     -0.23840210881167
  H   -1.54909651419119     -0.54569151181056     -0.80537532395211
  H   -1.83432648042079      0.18813638458031      0.77141217757884
  H   -2.27810097420865      1.06543430251911     -0.70367288462610
  O   -5.07528065294458      1.52551676707674      1.83279994994005
  S   -5.07548578065200      2.38975338126592      0.69439913983854
  O   -6.24760505651266      3.15601300547011      0.41881669715596
  O   -4.68828605017423      1.51730498353255     -0.60131560589791
  C   -3.66060444967570      3.50284243359654      0.76198187394217
  H   -3.88260093622208      4.27368017282103      1.48735752102049
  H   -3.54005130093337      3.92595910086092     -0.22516931005755
  H   -2.79831253826114      2.92382233581702      1.05966879194710
