50
Coordinates from ORCA-job ./surface_scan.031
  C   -7.77046267948649     -1.76632708585192     -0.34347138121946
  C   -6.65530083561613     -0.78785111941784     -0.51143536548946
  C   -5.89706804564062     -0.29696570514063      0.46776668025469
  C   -6.15029147581060     -0.70860281837472      1.89100528428407
  C   -7.49568245229467     -1.38265021107829      2.10486501169820
  H   -6.06804458141249      0.18017682964554      2.52745164664572
  H   -5.33873385472407     -1.37559475161923      2.21482284059970
  C   -7.74493967752240     -2.42245611768394      1.02642077088914
  H   -8.28884293949342     -0.62724206941304      2.06384716538377
  H   -7.53665061293520     -1.83292500253987      3.10141325136645
  H   -8.68175407622179     -2.95804582385236      1.20544032096193
  H   -6.94089419372908     -3.16667389346503      1.04956513115306
  H   -7.68555646538422     -2.51248597238865     -1.13718703851834
  H   -8.72268594384088     -1.24386609076511     -0.50732002915509
  C   -4.78434066159118      0.67305583730947      0.25750899181863
  H   -3.84841611781602      0.26982760834663      0.65975476574664
  H   -4.98730119869507      1.60343754748831      0.79709300464618
  H   -4.62482468350698      0.92956651305389     -0.78723539814891
  O   -5.66969490181172     -2.61859726637410     -2.55349572970600
  S   -5.32966520802113     -1.19623996898629     -2.65342281338316
  O   -7.25843122115757      2.42617720152153     -2.75277809740607
  O   -6.50528199099169     -0.35532953845074     -1.82649586446040
  C   -5.92407993645755     -0.62884273453578     -4.23229780248730
  H   -5.26687779931951     -1.07081795618850     -4.98224691444415
  H   -5.87679672987951      0.45910389760638     -4.28821099440821
  H   -6.94550687052683     -0.99191383054783     -4.34654651127705
  C   -4.46903941720068      5.36242811912941     -2.59015939709498
  B   -4.46421469023690      2.70720488638250     -3.21435400465907
  H   -4.15553156152995      1.58951878928778     -2.91747142197624
  B   -6.11640535567888      4.97985670647914     -2.69236174130203
  H   -6.89420875424375      5.54104753551876     -1.98779688172738
  B   -3.62035605097057      5.30511654048424     -4.05280722407587
  H   -2.74718154589517      6.09041295853075     -4.24546599313880
  B   -4.95308099257178      3.86720904688163     -1.97590232870677
  H   -4.96596533537312      3.68770894831031     -0.79881430416178
  B   -5.29747466074478      5.86843002889656     -3.97843688926289
  H   -5.52875266458541      7.02707287411880     -4.12482218825429
  B   -6.35676365142505      4.51702883306539     -4.38123691591330
  H   -7.40679372965804      4.69293224520527     -4.91822619604347
  B   -3.63169946257439      3.59815070252009     -4.50544580886645
  H   -2.73438119524166      3.11993518184546     -5.13008212313810
  B   -4.80399352681965      4.72350832996507     -5.22785180737184
  H   -4.74583675755264      5.05367028211916     -6.37284347254338
  B   -3.41007916649941      4.05959420477051     -2.81481323862424
  H   -2.39779051938229      4.01613190189028     -2.18955115649355
  B   -6.17171413921854      3.24830194823878     -3.13148653364708
  B   -5.32386846048253      3.11566562116660     -4.70753593566863
  H   -5.64719796529722      2.27659462598633     -5.49624060334826
  H   -6.97145959382245      1.62028914616286     -2.31835703774578
  H   -4.17971466847244      6.12153315209335     -1.87753643877698
