50
Coordinates from ORCA-job surface_scan
  C   -7.97187186850262     -1.16591819306842     -0.13300161690924
  C   -6.62523090570599     -0.60957472130599     -0.52301948583684
  C   -5.63383525170244     -0.38386043415941      0.33683297554264
  C   -5.78583111287528     -0.69941888269322      1.80272440430454
  C   -7.23832193997737     -0.89986768387882      2.22121840549020
  H   -5.34328143667872      0.11018649999016      2.38969134510953
  H   -5.21219142511534     -1.60723037981651      2.02353328553809
  C   -7.92817890804455     -1.83283066553968      1.23524136223239
  H   -7.75291773882260      0.06302876038650      2.22176416411520
  H   -7.28183049074180     -1.30837779106109      3.23434484423368
  H   -8.94136735332519     -2.06945301743898      1.56966787128974
  H   -7.36482527234791     -2.76566032243505      1.16766144253568
  H   -8.27867487613354     -1.87876628801739     -0.90194626829094
  H   -8.70350494543731     -0.35127565069293     -0.13404776276780
  C   -4.29213196755898      0.14586791845447     -0.08483751617715
  H   -3.65415749697214     -0.66304408465123     -0.44266072031596
  H   -3.79646375260029      0.61834881389806      0.76124032605876
  H   -4.39288805383423      0.88249781634999     -0.87871274384979
  O   -5.16669456076717     -2.36422950946672     -2.51452723606609
  S   -5.21460374015281     -0.91879910328694     -2.73710800463174
  O   -7.28897364625429      1.98700753700028     -3.66618674698901
  O   -6.55428679257776     -0.34331608885617     -1.86468037883592
  C   -6.07049971887322     -0.70497102471946     -4.33519975384114
  H   -5.32424573434914     -0.77547560273930     -5.11906808811174
  H   -6.52306237327661      0.28651050412766     -4.33974291134579
  H   -6.81416496538098     -1.48577247239472     -4.44532170998769
  C   -4.93811932164923      5.05357063367278     -2.27861506995540
  B   -4.48190584131881      2.55597292397630     -3.35175773899363
  H   -4.12715940629785      1.42403136004962     -3.20505804540617
  B   -6.46108820153795      4.59911979872055     -2.87950839218251
  H   -7.42669146407271      4.97512781307767     -2.29606490815730
  B   -3.76497280569907      5.32118505198033     -3.48583572394619
  H   -2.96568131239262      6.18304298400979     -3.30231237181132
  B   -5.39418626991079      3.42054244847164     -2.10519037035917
  H   -5.66925415084004      3.02867534087179     -1.01329195255781
  B   -5.45423329719350      5.76090558349705     -3.74092410287406
  H   -5.76226414598654      6.90992100343064     -3.72453267853572
  B   -6.25403542162569      4.45771275495375     -4.63253699325356
  H   -7.14573970652331      4.67510788509359     -5.38614345708938
  B   -3.47928928181538      3.74041761889626     -4.21633330987043
  H   -2.42301781128616      3.44426190883904     -4.67803683584334
  B   -4.57015912781414      4.90790892511116     -5.01069905844688
  H   -4.27758902838518      5.44623503587041     -6.03122328791855
  B   -3.72297398175728      3.87676317929863     -2.46984535797585
  H   -2.90004538247207      3.78329396048137     -1.61522927829902
  B   -6.21629627597094      2.98869165644066     -3.61514262308279
  B   -5.02354705134666      3.18896608252214     -4.92436095101183
  H   -5.05017047926845      2.50346295478351     -5.89600821572052
  H   -7.41986813095039      1.60078738285187     -2.80255337395678
  H   -4.90930479524193      5.67594986646155     -1.38744410244226
