50
Coordinates from ORCA-job surface_scan
  C   -5.46784180338989      1.37723939044500      0.66560077082128
  C   -5.20685559221922     -0.03785723467796      0.43047702270852
  C   -4.11868998928131     -0.75820653906732      0.51828997720161
  C   -2.83135401414358     -0.04610062649976      0.88963395992372
  C   -2.96739763314951      1.46886793472601      0.75108764757579
  H   -2.02760891356308     -0.41472099752358      0.24988567245151
  H   -2.58559721849362     -0.31009099584305      1.92219091507635
  C   -4.25356146659580      1.95825303727102      1.41104374519702
  H   -2.99045689398316      1.74085306588779     -0.30578235218079
  H   -2.10438925533224      1.95573826062601      1.20854893663479
  H   -4.30718239899543      3.04654261989030      1.38200005277016
  H   -4.27758367850935      1.63560452298332      2.45360363944209
  H   -6.38603442139375      1.49964489258679      1.24306583977045
  H   -5.61878785920290      1.89398309456370     -0.28549742290234
  C   -4.04953248192678     -2.23219779293358      0.29083340274484
  H   -5.04975290368067     -2.64907002242908      0.20438731318589
  H   -3.53132996151550     -2.71249870300639      1.11933807415025
  H   -3.49275208005471     -2.44748889525775     -0.62044113029955
  O   -7.75555228198345     -2.25538304781702     -0.15418205760453
  S   -6.93905238400873     -0.99497275391465     -0.41249214949966
  O   -8.20683936994109      0.90260946130046     -3.16973361685338
  O   -7.81030003290534      0.17858533396176     -0.43482356463561
  C   -6.28605296810559     -1.27141505422353     -2.10450830849477
  H   -6.24684660690617     -2.33925541918003     -2.27122918277393
  H   -5.30955748868807     -0.81331875435479     -2.18195272967291
  H   -6.97193228905419     -0.78619376453804     -2.79472309811789
  C   -6.96135875404225      4.81179642299090     -3.41850785593026
  B   -5.71894792589696      2.36460057960583     -3.15091549599379
  H   -5.10799913950861      1.59416479157670     -2.47688223201711
  B   -8.20223297809703      3.69668062804543     -3.72824260805209
  H   -9.31243127898260      3.98524800101878     -3.40579094883662
  B   -5.73430806945519      4.82648165075796     -4.59967698345477
  H   -5.22185375920838      5.86845686804720     -4.85489235828328
  B   -6.99491227886983      3.39110257338498     -2.47937125452755
  H   -7.31459892812062      3.48288194106705     -1.33391258951910
  B   -7.42054969111552      4.56839298038341     -5.04079769840278
  H   -8.01853213721716      5.44061998403667     -5.58677080304449
  B   -7.70832222264027      2.83039009099324     -5.19066348536530
  H   -8.50821688265701      2.39248279483051     -5.95776687676513
  B   -4.94066885716074      3.25606924080523     -4.47376480906640
  H   -3.78741990889232      3.11253339874918     -4.72917549278267
  B   -6.16676869221850      3.53761138131214     -5.73616114095030
  H   -5.87819422404332      3.60262069600205     -6.88965992563350
  B   -5.46893793406692      4.10061690234174     -3.01317683169276
  H   -4.78345363215683      4.66168808974912     -2.21906539558135
  B   -7.44278572782867      2.08610501807850     -3.59041122469973
  B   -6.16271570210488      2.00934802775547     -4.83222771049237
  H   -5.86835617857666      0.97632345565213     -5.35001917645801
  H   -8.24713488921797      0.85071551322154     -2.21140877432238
  H   -7.22808822089764      5.75117795661775     -2.94014968474674
