50
Coordinates from ORCA-job surface_scan
  C   -5.47306472782099      1.37675201119990      0.66454697435610
  C   -5.22749400311426     -0.04411531968356      0.41229457604521
  C   -4.13052122080846     -0.75720020468003      0.50620399556219
  C   -2.84568079201895     -0.05296546204283      0.88894724463227
  C   -2.97519362469397      1.46337753133461      0.75942422790811
  H   -2.03817138959465     -0.42008801915112      0.25282926961332
  H   -2.60509704015677     -0.32293027739097      1.92133877917934
  C   -4.26311299395812      1.94902555787578      1.41855900976398
  H   -2.99464276338904      1.74216590032008     -0.29573862759803
  H   -2.11235524121600      1.94501064091473      1.22261117742414
  H   -4.31387464759139      3.03776900377192      1.40010862441298
  H   -4.29057232988611      1.61726025899011      2.45828371337295
  H   -6.39480205526514      1.49789598827284      1.23687047146472
  H   -5.61816895947756      1.90219865382614     -0.28283896153511
  C   -4.06041335803017     -2.23010073652246      0.26791810143639
  H   -5.05961133098989     -2.65011233266899      0.18718405791512
  H   -3.53397308465531     -2.71433579798279      1.08897529126942
  H   -3.51011055362586     -2.43838970934515     -0.64900305548492
  O   -7.66218270415981     -2.23654435192746     -0.08774087915448
  S   -6.90003136519022     -0.96415347722523     -0.40357838468579
  O   -8.20306835794735      0.90125171002775     -3.16407737168743
  O   -7.80343942678616      0.18194616378294     -0.42250487422400
  C   -6.27755868033483     -1.25753155052499     -2.09945073862876
  H   -6.24792089717289     -2.32668045501271     -2.25859004774310
  H   -5.29993613107379     -0.80599685711203     -2.19653325512467
  H   -6.97137034418229     -0.77294289656968     -2.78218150767228
  C   -6.96098638180469      4.81118197936668     -3.42251824941436
  B   -5.71620990001893      2.36575871457031     -3.15092355678594
  H   -5.10316701076523      1.59756745289174     -2.47564387140477
  B   -8.20121228321730      3.69445133514860     -3.72913958046433
  H   -9.31123267888475      3.98283979568694     -3.40625628975891
  B   -5.73496294404384      4.82460596037128     -4.60483992039310
  H   -5.22354424393424      5.86643698584456     -4.86252923682072
  B   -6.99246957606519      3.39230089104247     -2.48053977334805
  H   -7.31152277027466      3.48594554340141     -1.33498830133298
  B   -7.42130301216585      4.56426889601261     -5.04409122834948
  H   -8.02028864261513      5.43497073406311     -5.59118854998419
  B   -7.70783278873952      2.82568554653132     -5.19022882132538
  H   -8.50783403607785      2.38565316580723     -5.95575121575988
  B   -4.93995263146000      3.25500475953297     -4.47641169542964
  H   -3.78681149340057      3.11197202255340     -4.73262267569614
  B   -6.16730883067310      3.53303097581759     -5.73839099221217
  H   -5.87953325462983      3.59603135118076     -6.89209979705175
  B   -5.46755496525530      4.10222431597104     -3.01709904425113
  H   -4.78176281456362      4.66555314874256     -2.22479304719036
  B   -7.44020898484352      2.08511916643641     -3.58860364430427
  B   -6.16135597700093      2.00646765627291     -4.83112683974851
  H   -5.86653666617250      0.97274107054417     -5.34704881037998
  H   -8.24757905310096      0.85558030247619     -2.20596017266327
  H   -7.22809103715154      5.75130225725609     -2.94585249674792
