76
Coordinates from ORCA-job ./surface_scan.010
  C   -6.89805269721023     -0.49141427213686     -0.35119960688896
  C   -5.43801927507149     -0.53264941685362     -0.24354125772041
  C   -4.54888111065634     -1.49359118110429     -0.33164383879902
  C   -5.10397676902544     -2.87817807512115     -0.55940931891133
  C   -6.59454689378891     -2.98757563238747     -0.27096685481089
  H   -4.54035934999138     -3.57895130138777      0.06536377119879
  H   -4.88535389265266     -3.15747231502208     -1.59561529582861
  C   -7.36194935686827     -1.83946248145968     -0.90816252543379
  H   -6.76343950408389     -2.97542371881140      0.81229389698946
  H   -6.97070770086755     -3.94672319820581     -0.63682642308034
  H   -8.43693576575105     -1.94675373022941     -0.74173769099181
  H   -7.19859791390301     -1.84983504382552     -1.99109211891591
  H   -7.19447433293781      0.31821112127701     -1.02103321497580
  H   -7.34575098375571     -0.29015428532976      0.62745814098035
  C   -3.07253423790039     -1.34050603585103     -0.25186857534242
  H   -2.78067742973753     -0.30695849785661     -0.09336027358353
  H   -2.62038821448203     -1.70041064403097     -1.18210026105346
  H   -2.66747544472222     -1.94998897078790      0.56295054846282
  O   -4.79451414641514      0.99549151460862      0.19173142720026
  S   -4.75469388212051      2.07613838544017     -0.93009021878492
  O   -5.33122314579011      1.56210583507711     -2.14372508624937
  O   -3.41729224556343      2.59249382116899     -0.99263092159426
  C   -5.80288181546017      3.31734176408779     -0.27143938681585
  H   -6.81013580351486      2.91420489608601     -0.19475943111470
  H   -5.76987267481776      4.16377765399236     -0.95481646780224
  H   -5.42995794848505      3.61161451835197      0.70791686964327
  Cl  1.66276066350214      0.75142499406334      0.01966430749877
  C   0.58372034654029     -0.58864278967015      0.15012742475215
  Cl  0.00134762554846     -0.82034211662668      1.80320858572751
  H   1.10247608561014     -1.47032773782331     -0.16007426783532
  H   -0.26149219786870     -0.37649505837859     -0.48959185624896
  Cl  -4.29347832605847     -1.00029920670204     -3.75849998552006
  C   -3.15063325088455     -1.97312839161544     -4.66775320102196
  Cl  -2.59227908213300     -3.41825966766647     -3.75960253880703
  H   -2.27475875750646     -1.35644614087206     -4.87687983290644
  H   -3.64735385945703     -2.31708093329761     -5.58980871134898
  Cl  0.29451095377932     -0.84077753214844     -3.56717380753205
  C   0.24594907883228      0.93062931895076     -3.38371743945707
  Cl  -1.13306616849304      1.46000501227409     -2.43984904716905
  H   0.17458290700030      1.37592866665341     -4.38493683000725
  H   1.15963880255240      1.23436654512177     -2.85735308082830
  Cl  -3.08735860289143      4.04157630434787     -4.55257280302296
  C   -3.57293739897679      2.38390304620553     -4.84695272434469
  Cl  -2.42345479933737      1.51541038632204     -5.88009443433717
  H   -4.52287771945307      2.39071150120869     -5.35829224706734
  H   -3.63471020016718      1.86723420882832     -3.90062932579709
  Cl  -5.34102754847529      6.49233902968530      1.90609547570167
  C   -3.61227544674904      6.58773716855736      1.57690899371244
  Cl  -3.19818700481205      5.98705376994088     -0.02218529144415
  H   -3.10596909938651      5.97283678719085      2.30666137441731
  H   -3.31779847372887      7.62822173267078      1.64386090695965
  Cl  -11.70017171326814     -0.06935298295864      2.99966254841297
  C   -10.61011536037534     -1.08017223814556      2.05094353121363
  Cl  -9.01741535808823     -1.23454557167601      2.79121044152764
  H   -10.48656475355174     -0.61319154411938      1.07869651172311
  H   -11.04990113867132     -2.06994040677166      1.97494360717353
  Cl  -6.39722698462757      1.45789567162319      3.02196641953725
  C   -5.81456456854099      1.97610209894245      4.60863139867443
  Cl  -5.91830922316174      3.71925206102110      4.82169204161058
  H   -4.77471583800273      1.67538714897519      4.68372731971827
  H   -6.42811029620564      1.49526123889590      5.36381154806534
  Cl  -9.55710004575895      2.04321600554774      0.42415111623011
  C   -9.57590502093198      2.81110655166948      2.02368005979095
  Cl  -8.77156349915461      4.37098237828882      2.02120786186238
  H   -9.05229259775439      2.15212202886306      2.70919615875454
  H   -10.61414415226417      2.94955433382375      2.30621106906346
  Cl  -3.18313585740653     -0.56895792333607      3.82982852703203
  C   -4.47432367997096     -1.59578738716712      3.21400658539841
  Cl  -5.71073181330388     -1.94155089645556      4.42468650482538
  H   -4.03522775323687     -2.54152553748380      2.91036566029574
  H   -4.94582920819958     -1.08549805189668      2.37989250823654
  Cl  -0.30409988936598      4.03899377155741      1.88674028203530
  C   -1.62086535442429      2.89375411732956      1.64963978319482
  Cl  -2.99790573914460      3.23793359862676      2.71058383484123
  H   -1.25290685838097      1.90217190449772      1.88922054010327
  H   -1.97413928762123      2.96755002343909      0.62855861082821
