100
Coordinates from ORCA-job ./surface_scan.032
  C   -3.11548759689849     -1.59063052194160     -0.85427937047331
  C   -3.25254531463088     -0.83886923101522      0.36982563728520
  C   -3.61534634400912     -1.07788915275904      1.58556050953332
  C   -4.03100602537209     -2.52843677206683      1.87243516514709
  C   -4.28559319960306     -3.29799645669393      0.57974887469474
  H   -4.93104842456319     -2.50912943858709      2.48798767139897
  H   -3.22560932422970     -2.99353753345357      2.44778821081807
  C   -3.16395765173325     -3.08214565258980     -0.43276007913654
  H   -5.22835524767704     -2.96329677235652      0.14532410006490
  H   -4.37841369548671     -4.36276459217780      0.80614314432812
  H   -3.32377572959206     -3.69700227348886     -1.31936843583260
  H   -2.20788095117058     -3.35875071730927      0.01541996586161
  H   -2.17235692643333     -1.37020907727166     -1.35715458753015
  H   -3.93110133519231     -1.35898632268367     -1.54342580532266
  C   -3.66423537458380     -0.11639996864235      2.72589520012619
  H   -3.34310699679970      0.86313717790916      2.38141028771797
  H   -3.00886416336330     -0.45091620380227      3.52916335122667
  H   -4.67738510783771     -0.05562019479555      3.12075667315418
  O   -3.18064501740044      2.13062759973613      0.44924130019580
  S   -3.45446261645574      2.71183526670678     -0.90396040879942
  O   -3.24752026803877      2.86593463246112     -4.19183223185126
  O   -2.23510043695761      2.62464086518289     -1.79648742761531
  C   -3.46985700238909      4.55198971352279     -0.49538243027647
  H   -4.31110557610865      4.73401959908010      0.16331676439145
  H   -3.58060483754568      5.10468315065509     -1.42055427762326
  H   -2.53934211497960      4.80492046740323     -0.00171473562417
  C   -6.09514045725750      0.64781065339427     -6.01126490500339
  B   -5.21410886291494      0.95035346763338     -3.40948559203420
  H   -4.63929214740042      0.53004294057545     -2.46743766949426
  B   -5.09625373719304      2.02237491733710     -6.09574710262573
  H   -4.47322629201648      2.20897050105724     -7.07703902019624
  B   -7.52077976307228      0.87725718082955     -5.10902743266147
  H   -8.50440840619510      0.32037366690906     -5.45793932326787
  B   -4.68803128756327      0.60673493198126     -5.07619028518216
  H   -3.78553078287233     -0.07517387924189     -5.40321608836477
  B   -6.85257723118742      2.16562167102815     -6.11203694087254
  H   -7.40611353197909      2.45934358627906     -7.11415454811976
  B   -5.88194222890639      3.22569201057907     -5.08484774525264
  H   -5.75918721202863      4.38669020272411     -5.27483813432745
  B   -6.99036672423172      1.10516969966869     -3.44218464268941
  H   -7.67330933307172      0.78797546980694     -2.52435503867872
  B   -7.38462629065867      2.52373609331824     -4.45538712208276
  H   -8.33078101478543      3.21019504375228     -4.23567102314463
  B   -6.18240080435487     -0.08291884737053     -4.46076672994741
  H   -6.28361946598594     -1.26004387429585     -4.40111187734429
  B   -4.48213351358875      2.26674096943789     -4.41235466873011
  B   -5.96489656038401      2.54934022360318     -3.40042893552236
  H   -5.89130103661469      3.26093793589642     -2.45362586661927
  H   -2.84268630231925      2.71458914672732     -3.30368586922267
  H   -6.14340652188919      0.00262388227092     -6.88028235322638
  Cl  -3.11607889507741      6.13085274519083     -6.50892505275155
  C   -2.79616165330312      5.76798125950514     -4.80878542399983
  Cl  -3.89771485295866      6.66906271750438     -3.76798244766524
  H   -1.78128936668641      6.08633096730465     -4.57533101308490
  H   -2.95701988123748      4.69384854410001     -4.63979946932884
  Cl  -10.58358428510284      3.97284118830536     -1.46875425875611
  C   -9.25793391508949      2.94282523683931     -0.90597041228657
  Cl  -9.85567063525529      1.34176881082719     -0.46673365473567
  H   -8.81674460950494      3.39312403439928     -0.01733025972556
  H   -8.53725941625205      2.82556732107022     -1.71704906999589
  Cl  -8.20364868043011     -3.15069726238615     -0.68983558620112
  C   -8.62767595791659     -1.91307466627724     -1.87305906334554
  Cl  -9.86890638664145     -2.49688332529289     -2.98829187756527
  H   -7.73515076111731     -1.65966322542323     -2.44437973381048
  H   -9.02085978050581     -1.05194164826195     -1.33423084475121
  Cl  -7.89269389672795      6.96857359847161     -6.47819962949389
  C   -8.77517507096627      5.43723713571462     -6.42210736455192
  Cl  -9.66432522603306      5.16309276555672     -7.92191664497759
  H   -9.49498906085486      5.48053412278496     -5.60578467548229
  H   -8.05614102594829      4.62687921558583     -6.29688815487306
  Cl  -7.07497427718856      5.60455829284141     -0.92793411117946
  C   -7.16015690950023      6.06606059469769     -2.63000323177736
  Cl  -8.81060816134308      6.51255356425067     -3.07208836483856
  H   -6.85578271844133      5.20896257317384     -3.23256384005983
  H   -6.51231581326986      6.92775953764977     -2.78459721801933
  Cl  -11.63343035513740      0.14037241771117     -4.76512734860969
  C   -11.05090913528498      1.60202512699509     -3.95484517779772
  Cl  -11.31904789505842      3.03249349385144     -4.95933888757543
  H   -9.97723006841934      1.49879099766539     -3.79344202877318
  H   -11.60762269016865      1.72575917424749     -3.02741889268145
  Cl  -0.48754096510762      6.09474671737216     -1.98029574396423
  C   -0.01500709981178      4.42283432804305     -2.31335485243510
  Cl  0.48750695634429      4.24874974196938     -3.99897642320947
  H   -0.87596631748764      3.75492449570744     -2.12602165614927
  H   0.83786682807510      4.18417760609000     -1.67987612239483
  Cl  -11.99893096045869      1.09812237554995     -8.24220000659453
  C   -10.29856732423862      1.49893591886780     -7.97323546092310
  Cl  -9.28046248399343      0.83263667249138     -9.25271982310142
  H   -9.98306756181062      1.06320477074253     -7.02596694264165
  H   -10.19581391538745      2.58397805486093     -7.97871895561391
  Cl  -10.25178687424417     -1.45189947697968      3.26955162573759
  C   -8.73448151184179     -1.08557428400930      2.43493387084397
  Cl  -7.35528411070860     -1.34569538654797      3.49521313446523
  H   -8.74415276702945     -0.03702943495077      2.13886908513684
  H   -8.63519539361555     -1.75450263928129      1.58072647319849
  Cl  -7.01559751404351      2.03085692363477      1.64544312016216
  C   -6.04901993836103      1.29377184444577      0.36459944205835
  Cl  -6.50294078181199     -0.38572092379900      0.14034111019769
  H   -4.98842157337881      1.35272837712834      0.64356569103936
  H   -6.24938852210757      1.82113382521284     -0.56733197822011
