100
Coordinates from ORCA-job ./surface_scan.031
  C   -3.06660202231757     -1.53079368282000     -0.79907903069681
  C   -3.23946864805792     -0.79303306567194      0.42845381511994
  C   -3.61984894675508     -1.04767354662701      1.63568263297059
  C   -4.01629694431801     -2.50663416599685      1.90369921260721
  C   -4.23630212275826     -3.26881482428962      0.60008789509734
  H   -4.92691064615422     -2.50719816774759      2.50387315380948
  H   -3.21360247572181     -2.96394586747464      2.48897211551839
  C   -3.10113637903376     -3.02646578629142     -0.39123839707831
  H   -5.17713336031470     -2.94541400647709      0.15301352774600
  H   -4.31564175826024     -4.33684960720455      0.81579645466048
  H   -3.23662024833557     -3.63541145519588     -1.28594353327575
  H   -2.14890591984784     -3.29350206762161      0.07077966491751
  H   -2.11705806908918     -1.29112088650002     -1.28062700092811
  H   -3.87068006704709     -1.30435844923374     -1.50330977410718
  C   -3.70487337721050     -0.09486859916052      2.78115613850793
  H   -3.38413511478185      0.88996880177635      2.45191069988837
  H   -3.06617433277696     -0.42952306609404      3.59767984730048
  H   -4.72780060317153     -0.04577317114141      3.15184946054197
  O   -3.16015838428701      2.12003322581570      0.45701490271091
  S   -3.44185797701837      2.65811154734277     -0.91346950651132
  O   -3.25312697580041      2.84757590359449     -4.19294449673804
  O   -2.22171400981195      2.56418189064249     -1.80264153519127
  C   -3.48461328636935      4.50689978552544     -0.55077594461801
  H   -4.32703901568081      4.69277076490965      0.10520318944537
  H   -3.60496386469885      5.03468141792087     -1.48915945601333
  H   -2.55695020704476      4.78523935877136     -0.06554314633551
  C   -6.11565262369695      0.66188377750419     -6.03021204908493
  B   -5.22943428072710      0.93219197536808     -3.42759810736559
  H   -4.65741433992161      0.49627354694351     -2.49071399814584
  B   -5.10924800710810      2.03181162885411     -6.10162173776679
  H   -4.48647275330076      2.22515050571855     -7.08182155618247
  B   -7.53881756489501      0.88985723404396     -5.12369636869992
  H   -8.52572122094673      0.34175966216929     -5.47727137574651
  B   -4.70744130773616      0.60335187610428     -5.09747210702367
  H   -3.80965879899898     -0.08067359294281     -5.43315547304896
  B   -6.86489464458302      2.18472841226681     -6.11414324354492
  H   -7.41803751669361      2.49116524641248     -7.11281428439149
  B   -5.88695996344770      3.22883011913154     -5.07750092523834
  H   -5.75940596800671      4.39117349346154     -5.25631980626211
  B   -7.00458634651786      1.09829397927763     -3.45520308807748
  H   -7.68741100613390      0.77668557810684     -2.53867410879191
  B   -7.39295648985322      2.52874481221248     -4.45346607331707
  H   -8.33552190441757      3.21783268812287     -4.22584338787288
  B   -6.20552258282011     -0.08437933522309     -4.48770146963145
  H   -6.31340575926165     -1.26141526745814     -4.44020025738794
  B   -4.49203325525196      2.25549991098459     -4.41708298905228
  B   -5.97094726558641      2.53606893184691     -3.40046185264857
  H   -5.89243878893188      3.23756711283570     -2.44610478973454
  H   -2.84265069412403      2.67849066007141     -3.31207372715678
  H   -6.16870490282818      0.02621919307136     -6.90594972253181
  Cl  -3.10947448621226      6.09927628725572     -6.52351455613828
  C   -2.79571221602087      5.74771924671316     -4.82000863759841
  Cl  -3.89892990101877      6.65837197843187     -3.78897793917434
  H   -1.78108116661871      6.06601740285114     -4.58539262630917
  H   -2.95869380805724      4.67496069284202     -4.64445269579568
  Cl  -10.58869175188444      3.95788475183277     -1.46827659438600
  C   -9.26241849770360      2.92807664936184     -0.90662551877978
  Cl  -9.85883818419980      1.32582319418638     -0.47006683650801
  H   -8.82199718692202      3.37724270469294     -0.01704187149963
  H   -8.54109793089986      2.81223721051885     -1.71737688834307
  Cl  -8.16633286160631     -3.16531286645222     -0.71376726666955
  C   -8.61342276183075     -1.92453122021860     -1.88521703919853
  Cl  -9.86077603969421     -2.51227391883030     -2.99143459673068
  H   -7.72879282890381     -1.66009142404265     -2.46381379854676
  H   -9.00901707628139     -1.07013153008229     -1.33751569594058
  Cl  -7.87712238834174      6.98979294441293     -6.44470357637428
  C   -8.76702716723119      5.46221921258693     -6.40601322976643
  Cl  -9.65245158304833      5.20664963410656     -7.91136149990688
  H   -9.48938473287549      5.50123786122843     -5.59173844120973
  H   -8.05223040883754      4.64729673438347     -6.28604711455261
  Cl  -7.07292359236225      5.58581394193280     -0.90894473791876
  C   -7.15624637466376      6.05161752469884     -2.60987517080662
  Cl  -8.80506900182868      6.50592369862566     -3.04993294260172
  H   -6.85530550789010      5.19476446694761     -3.21458316442885
  H   -6.50496197938192      6.91109583643963     -2.76263575043415
  Cl  -11.64105630825234      0.14726886793674     -4.78102831617981
  C   -11.06009262519004      1.60243890003562     -3.95816202587622
  Cl  -11.33169736011669      3.04176748874179     -4.94909979064987
  H   -9.98600794210794      1.49967721808256     -3.79920619907794
  H   -11.61593875065828      1.71659718320591     -3.02900329751130
  Cl  -0.47922096478885      6.03951314591165     -1.99837288063466
  C   -0.00834145395316      4.36854035493205     -2.33832188676324
  Cl  0.47844416622846      4.19718446197358     -4.02886368163582
  H   -0.86663403188778      3.69952831335791     -2.14366828037813
  H   0.85068214604331      4.12991883528157     -1.71319532392779
  Cl  -12.01502142403901      1.15689255753672     -8.24628968804496
  C   -10.31177640116147      1.54719909334812     -7.98032203514453
  Cl  -9.30098521197070      0.88244808684124     -9.26637933266803
  H   -9.99570804570311      1.10484583559017     -7.03630120014112
  H   -10.20323723051589      2.63168894353776     -7.98028928555891
  Cl  -10.27292311953745     -1.48464732165370      3.22113261305433
  C   -8.74876929528385     -1.11063298501801      2.40247877273618
  Cl  -7.38008358592969     -1.35539209746085      3.47985483390358
  H   -8.76318609614735     -0.06364793881421      2.10130525246365
  H   -8.63431826181564     -1.78289386569998      1.55278881628093
  Cl  -7.02493191095910      2.02124237418531      1.64281948700920
  C   -6.04530450392328      1.28962814786227      0.36906267557407
  Cl  -6.49345176411063     -0.39072859496391      0.13647186639775
  H   -4.98807244978498      1.34823359814318      0.65845660406146
  H   -6.23759539762994      1.81807395312226     -0.56403789816820
