76
Coordinates from ORCA-job surface_scan
  C   -6.63372833137166     -1.05914384349915     -0.88063768097137
  C   -5.90133769919470     -1.67333496664763      0.26220424547296
  C   -5.40151961881513     -2.90285623798364      0.33074333288790
  C   -5.48791542630150     -3.79413485957198     -0.87728664839961
  C   -6.50987409227576     -3.32308851514288     -1.90561956985183
  H   -5.72774020942199     -4.80607489618799     -0.54791323483780
  H   -4.49165021411380     -3.82694683342728     -1.32657328447806
  C   -6.33827092790076     -1.83334173239868     -2.16255343998594
  H   -7.51666978642783     -3.51286685935760     -1.52973812397603
  H   -6.38010408583552     -3.88432560256734     -2.83119095454502
  H   -7.01169924853174     -1.49481886405181     -2.94915429117284
  H   -5.31762083908977     -1.63321563385846     -2.48696783099617
  H   -6.35832589338412     -0.00764991786230     -1.00321133245957
  H   -7.70843912977693     -1.08532823637768     -0.66985525015290
  C   -4.69470087711486     -3.49075679427716      1.50588960064936
  H   -4.85034154604934     -2.92691967667738      2.41993719753748
  H   -3.62651387666973     -3.54609607115724      1.29777283950610
  H   -5.04965073269653     -4.50594432215022      1.66707397694143
  O   -4.90564300375691      2.11885080092447      0.67938681355001
  S   -5.28199073819024      2.80601139506770     -0.56961924547569
  O   -6.26052886030156      2.04079331949378     -1.31871332464510
  O   -4.10369745422311      3.16271160222270     -1.35498978770275
  C   -6.04111778460103      4.36755330720722     -0.10163723966099
  H   -6.97813000602058      4.17669382330241      0.40083069981050
  H   -6.19852354585178      4.91657758663304     -1.01938248834330
  H   -5.35231038319121      4.88450705092045      0.55116074359202
  Cl  1.10941729557367     -0.85702068619548     -0.38486468512094
  C   0.62245611989675      0.53767452241027      0.58988191926781
  Cl  -0.67141056622339      0.09847072811635      1.71486057785835
  H   0.25634744273421      1.31466262603459     -0.08109863164082
  H   1.47964505599373      0.86978081724332      1.17368219851501
  Cl  -5.26975855478968      1.54100663111736     -3.72275550356312
  C   -4.59731648925502      0.80941129083387     -5.23498500734305
  Cl  -4.02252235861496     -0.82354132040806     -4.94726622512886
  H   -3.74766234725022      1.40151937014385     -5.57220250215047
  H   -5.38194432545554      0.75259815355264     -5.98718248655687
  Cl  -2.21101817594145     -2.18666981549923     -0.62447096495971
  C   -2.27214547286849     -0.87765312786382     -1.78958902339810
  Cl  -3.34692290173874      0.46232949392617     -1.21900856243503
  H   -2.66784677136020     -1.27413707923927     -2.72549660534420
  H   -1.26024598249806     -0.49086157439211     -1.90837556495094
  Cl  -0.50535343190372      2.13356963462107     -2.48225655535809
  C   -1.64214960012653      3.33570667901198     -3.07584320040183
  Cl  -1.83006723253045      3.19648719839225     -4.82547466858921
  H   -1.23271401450920      4.32022281795327     -2.85100407950840
  H   -2.61162508426184      3.17545252455259     -2.59560522111452
  Cl  -4.00479986738745      7.50342743732120      1.14104435050871
  C   -2.65782131359750      7.11536338738394      0.06381180044697
  Cl  -3.15608163148541      5.92644410410970     -1.17139200727587
  H   -1.85836637485394      6.67892938671685      0.66103175656917
  H   -2.34590913122751      8.02926383089309     -0.43745423243302
  Cl  -6.67515935710859     -2.14427069370581      4.48577066510172
  C   -8.05352989306557     -3.15286770208648      4.01483495355492
  Cl  -7.99736831645024     -3.54708117652136      2.29874308157780
  H   -8.96543936217391     -2.58728332091513      4.19936941949066
  H   -8.01202675466727     -4.08097214738069      4.58272127417882
  Cl  -6.40713572339882      1.29372675900327      4.21175104451672
  C   -5.88573144205553      2.80119837611668      3.44888647213641
  Cl  -7.20254116566340      3.98108520181953      3.43565021362548
  H   -5.59278473445501      2.58399728071514      2.41456808152654
  H   -5.06543078360461      3.21417479468765      4.03437685565537
  Cl  -9.01742638708128     -0.38558174672419      2.45333800166377
  C   -9.20755226473594      1.28634085128663      1.96547704354910
  Cl  -8.02929577611733      1.70469633388702      0.65542837177163
  H   -9.01240967302110      1.91347202090500      2.83444143287888
  H   -10.22087087099953      1.41190924163833      1.58856772741282
  Cl  -3.57697182215768     -0.59693020058647      3.55088360584758
  C   -4.03779054105991     -0.27666214477136      1.89390606488182
  Cl  -5.78760936782550     -0.60451208932061      1.66837167813162
  H   -3.49677516673634     -0.94215452448927      1.21774594671396
  H   -3.92719096509715      0.78383413843080      1.63728572275330
  Cl  -0.62476406637162      4.03940266192234      0.49506897079871
  C   -2.17946298856960      3.29273127241653      0.87809563840458
  Cl  -3.02456345054476      4.21122982685817      2.11681949492126
  H   -1.98714341659304      2.29394976271232      1.26735674942755
  H   -2.80379568565599      3.28094517079011     -0.02189110870683
