26
Coordinates from ORCA-job surface_scan
  C   -5.99821976531268     -0.45659622866637      0.57982378203112
  C   -4.58818090740912     -0.27969574982221      0.56252780118551
  C   -3.48262082854512     -0.88219039466117      0.31490755600927
  C   -3.74230614816985     -2.35789005738968     -0.05006051067381
  C   -5.16817577768173     -2.81166199323576      0.24315212313679
  H   -3.02203442073062     -2.96157781041123      0.50427628206292
  H   -3.52070953843508     -2.43837596769139     -1.11699006815297
  C   -6.18704578177983     -1.77807722895758     -0.22443053071577
  H   -5.28742837541076     -2.97514328450791      1.31536468597045
  H   -5.34879474647360     -3.76051080832919     -0.26575600276660
  H   -7.20639569686438     -2.12826228352175     -0.06325138852733
  H   -6.05052725327069     -1.56836038998845     -1.28516492858947
  H   -6.48612971402430      0.37495405539868      0.06396217668596
  H   -6.39365700607493     -0.53581547520074      1.59486891281783
  C   -2.08107644901501     -0.39348051475820      0.29817056540670
  H   -2.07216106353322      0.59922811352298     -0.15122089510526
  H   -1.44242039232351     -1.06689233995410     -0.26603793958611
  H   -1.70720047317414     -0.30967530836749      1.31742785077725
  O   -4.23593281067563      1.93228660063197      1.24957586250060
  S   -4.42261223733311      2.53879467383483     -0.10675474650637
  O   -5.76541175065186      2.30031196952832     -0.62861251753501
  O   -3.35811074883032      2.14783116302945     -1.02498853769827
  C   -4.26015480248375      4.31177201470957      0.18753037261804
  H   -5.03868952730793      4.59173274798284      0.88205323854438
  H   -4.38038378596677      4.80524094176709     -0.76595247508778
  H   -3.27641999852192      4.47876355505751      0.60141933119793
