26
Coordinates from ORCA-job surface_scan
  C   -5.98273831226689     -0.45983150661168      0.59533778245664
  C   -4.57494525460067     -0.29382443541295      0.59436740419415
  C   -3.46610160271343     -0.88531360257998      0.34270782949662
  C   -3.73010755157905     -2.35700674961251     -0.04535935804759
  C   -5.16602168491752     -2.80664899735085      0.20120429564176
  H   -3.02897154619868     -2.97253467748638      0.52042514852372
  H   -3.47992617062805     -2.42162584596267     -1.10700068754765
  C   -6.16780707495476     -1.75206285720973     -0.25745751617443
  H   -5.31212104258854     -3.00210193704641      1.26468904009646
  H   -5.34125794932195     -3.73816229623869     -0.34066670930276
  H   -7.19306900875423     -2.09786797278189     -0.12761712237183
  H   -6.00752879919922     -1.51001121500675     -1.30783416792552
  H   -6.45552431366896      0.39602822722874      0.10338834680435
  H   -6.39182991820894     -0.56983632375530      1.60202819335689
  C   -2.06581164062760     -0.39551442010007      0.32672743742825
  H   -2.05818305289809      0.58587425636596     -0.14623609945294
  H   -1.42110950040411     -1.08033198558604     -0.21626997549786
  H   -1.70123706636760     -0.28431792312928      1.34666737572959
  O   -4.24359032298326      1.97152763759860      1.31435612091326
  S   -4.50311861314173      2.52594372195210     -0.04822119329367
  O   -5.89316793117406      2.33554952210557     -0.46114427521224
  O   -3.53520990696586      2.03774092227986     -1.02649680197096
  C   -4.23541538956559      4.30198727811543      0.13557791583017
  H   -4.94104758624454      4.65434606713011      0.87364726872688
  H   -4.41236704463432      4.75181484999766     -0.83069774702808
  H   -3.21459171539221      4.44289026309716      0.45971749462682
