26
Coordinates from ORCA-job surface_scan
  C   -6.09525094326406     -0.46433860175374     -0.33704454264749
  C   -4.71175719052792      0.11587830509351     -0.37444413882570
  C   -3.59252656614339     -0.55820810992397     -0.13146922540419
  C   -3.63342550461310     -2.02297787357414      0.21398139011307
  C   -5.01967506911731     -2.47225154482383      0.66406143387407
  H   -2.90187384659976     -2.21665481407383      1.00175443639951
  H   -3.32475642800274     -2.59944808267088     -0.66440395846518
  C   -6.06286838378474     -1.99057736516809     -0.33706828945796
  H   -5.23962700932005     -2.04196403146456      1.64273396927457
  H   -5.04691557366087     -3.55997128759295      0.75211394517686
  H   -7.05038053325042     -2.37846454138793     -0.08223820470368
  H   -5.80226107883905     -2.35148581082802     -1.33413050471746
  H   -6.65715643801991     -0.08359758214764     -1.19472580596876
  H   -6.59068126610037     -0.09034210618231      0.56528688866387
  C   -2.22663516456511      0.05957626709405     -0.19452895964490
  H   -2.25435393183241      1.00645654899087     -0.72615281555515
  H   -1.53871772255550     -0.61384197039206     -0.70356157624879
  H   -1.84772263411956      0.22665920478522      0.81416989892437
  O   -5.08914460308785      1.57886216141702      1.70630138278470
  S   -5.05710932384964      2.41634115167473      0.54179973116435
  O   -6.24083748878286      3.16731576666886      0.22843805175687
  O   -4.67462250106568      1.47932632386918     -0.70345842385317
  C   -3.65388610527371      3.53720985891025      0.59750980711024
  H   -3.91385948930149      4.35241917743678      1.25976461206149
  H   -3.49365674689347      3.89506038425390     -0.41012657317584
  H   -2.80309845742890      2.98572857178967      0.97127747136432
