26
Coordinates from ORCA-job surface_scan
  C   -6.10372120461029     -0.46780277318037     -0.34827563061298
  C   -4.72415590875294      0.12264966237054     -0.38111028502669
  C   -3.60150371199791     -0.54389657006070     -0.13395151620813
  C   -3.63393567510090     -2.00480182537976      0.22877135531314
  C   -5.01965579974630     -2.45925292226525      0.67496527012726
  H   -2.90630035099223     -2.18347486088069      1.02371647431148
  H   -3.31479913824241     -2.58919291364463     -0.64062570158503
  C   -6.05960474078829     -1.99373981869706     -0.33707552774456
  H   -5.24829896649528     -2.02056771412822      1.64786112995772
  H   -5.04017676325512     -3.54623530763713      0.77337816913534
  H   -7.04585212961946     -2.38735129331393     -0.08621375126979
  H   -5.78911665234769     -2.36000158275271     -1.32956936476961
  H   -6.66197793126792     -0.09750381941737     -1.21292053675883
  H   -6.60853839258511     -0.09188415490976      0.54780332730332
  C   -2.23843869339127      0.07955017321598     -0.20412562410149
  H   -2.27149243830920      1.02252080317432     -0.74235962948740
  H   -1.54937444206236     -0.59461340490560     -0.71071703602525
  H   -1.85724652496444      0.25428533753201      0.80238989254619
  O   -5.08172747080638      1.52994619150854      1.67152014351112
  S   -5.05223410035063      2.40328170289416      0.53454377976229
  O   -6.22998051345898      3.17491461021277      0.25096050570198
  O   -4.69422377526171      1.48216821077206     -0.72953154489320
  C   -3.63699595382909      3.50849617449715      0.60724568670775
  H   -3.88538116317719      4.31197462994083      1.28806788829672
  H   -3.47824750712084      3.88652492607320     -0.39329958962948
  H   -2.78982005146592      2.94071653898165      0.96439211543813
