26
Coordinates from ORCA-job surface_scan
  C   -6.01899597197965     -0.42563540798697      0.58399976125670
  C   -4.59706946966708     -0.19402329756686      0.60759002786807
  C   -3.50376231919722     -0.83368783523539      0.33610602726103
  C   -3.73636150473242     -2.28409151861203     -0.06939271254825
  C   -5.15845246989149     -2.75816915077186      0.22153258373775
  H   -3.01204143913926     -2.91018702131305      0.45536664923723
  H   -3.52528016388424     -2.34661124150495     -1.14015070286523
  C   -6.18674722747734     -1.72552434396645     -0.23237868934981
  H   -5.27141291730320     -2.92759698945433      1.29399976647728
  H   -5.33259527134199     -3.70729927080608     -0.28906647977357
  H   -7.19973842770026     -2.10432403735605     -0.09523738641377
  H   -6.03988503716370     -1.50207704920445     -1.28906129976818
  H   -6.51209550262658      0.41257092846412      0.08587811799122
  H   -6.42519610268298     -0.53004769361658      1.59320121638890
  C   -2.11198866122188     -0.30869041228535      0.34008599042759
  H   -2.08618235924609      0.58306162432852     -0.28658310019352
  H   -1.41279539249233     -1.05157345733097     -0.03331337450458
  H   -1.82801448113582     -0.01363227799456      1.34794827423197
  O   -4.25484896048506      1.75702218069172      1.16269682905610
  S   -4.42234803156544      2.41875664356132     -0.20352840588068
  O   -5.75736296845852      2.22916512144442     -0.71915898564594
  O   -3.35306692350407      2.05183171103409     -1.10104226909247
  C   -4.22103680951295      4.15390640320878      0.23939961679282
  H   -5.00098243668247      4.39661824300446      0.94626201440754
  H   -4.31496321675137      4.73475259947971     -0.66690515347599
  H   -3.23957593415653      4.26219554978879      0.67759168437777
