26
Coordinates from ORCA-job surface_scan
  C   -5.99979527058235     -0.45531707882390      0.65342246732763
  C   -4.58637479869958     -0.27792692006965      0.69688808083261
  C   -3.48171061025238     -0.86650882748276      0.39487074953669
  C   -3.72500973861210     -2.30612789899041     -0.07113504534749
  C   -5.16703712082132     -2.76744225150458      0.13070611254693
  H   -3.03500451013066     -2.96206223939267      0.46287727256144
  H   -3.46353091347618     -2.32016044306533     -1.13214666505518
  C   -6.16442462472767     -1.68463482127582     -0.27630670049025
  H   -5.32415849380799     -3.01964779308424      1.18115710793943
  H   -5.33783605634768     -3.66966123206711     -0.45999992817306
  H   -7.18799074909632     -2.05083839422055     -0.19771420145213
  H   -5.97948124258141     -1.37785392284276     -1.30530060892610
  H   -6.44935047268943      0.43858187012725      0.20370663342095
  H   -6.43296962758790     -0.62509998944088      1.64137426168301
  C   -2.09903623259704     -0.32724767224927      0.38119534582749
  H   -2.10390480929877      0.55536824404558     -0.26111404648690
  H   -1.39056952088395     -1.06406990481347      0.01408841271098
  H   -1.81534324728958     -0.00534258753566      1.38048052223035
  O   -4.21625976737450      1.89196508611737      1.31257726847035
  S   -4.47862584019071      2.41617883678304     -0.07585110696216
  O   -5.85904380393339      2.21435823702240     -0.47494157276916
  O   -3.50083028018127      1.92771429214849     -1.02730001591311
  C   -4.21558910988255      4.19063233137042      0.12201717009218
  H   -4.92366121273321      4.53759631327807      0.86021242539399
  H   -4.38863540842345      4.65201481717518     -0.83945256129665
  H   -3.19662653779848      4.33224194879124      0.45152862229813
