26
Coordinates from ORCA-job surface_scan
  C   -6.02195381141853     -0.39778015615552      0.54182609104598
  C   -4.59188571088362     -0.11119331207960      0.56700402231910
  C   -3.51554367367524     -0.80414019818379      0.30964316950794
  C   -3.73973150929280     -2.25797616166354     -0.05034198144199
  C   -5.15369607129009     -2.73299274459411      0.27673341997339
  H   -3.00482728645366     -2.86756302137268      0.47989474763732
  H   -3.54512323968108     -2.36087261556955     -1.12158151078702
  C   -6.18945314432594     -1.72526991027387     -0.21336459697138
  H   -5.25443779361172     -2.85270242713086      1.35707393056973
  H   -5.32617719797934     -3.70574486930336     -0.18755029693061
  H   -7.19912664927137     -2.10665395409138     -0.05814350082131
  H   -6.04872151854824     -1.54967453704252     -1.28028605438529
  H   -6.54019775953944      0.41320321753475      0.02717381728635
  H   -6.41814287985315     -0.47139888936392      1.55872977642962
  C   -2.11625733666576     -0.28717793431261      0.31693554283765
  H   -2.06168738183734      0.58577602206283     -0.33163698368849
  H   -1.42104098297500     -1.04748914674638     -0.02849469726905
  H   -1.83793995179345      0.02621211582448      1.32124380217834
  O   -4.29341073547724      1.63245535019370      1.02990304816764
  S   -4.42889897735846      2.40726728868746     -0.30632044064772
  O   -5.75503115953425      2.27387931047372     -0.84587248662975
  O   -3.34556122106215      2.09131939549137     -1.19758562508919
  C   -4.20823135262962      4.08033931835654      0.31607814902737
  H   -4.99980442758509      4.26561786480319      1.02749624096195
  H   -4.27068128116674      4.75494235408021     -0.52621071643625
  H   -3.23523694609063      4.12432764037545      0.78349313315566
