26
Coordinates from ORCA-job surface_scan
  C   -6.01989724116278     -0.41932962387429      0.57195416139973
  C   -4.59600413069169     -0.17424937242185      0.59631713288605
  C   -3.50664957421200     -0.82678329899083      0.32838710600065
  C   -3.73649149113497     -2.27850288583565     -0.06431236321981
  C   -5.15642811053200     -2.75299994138398      0.23666778617454
  H   -3.00908373515338     -2.89965126803504      0.46222337928559
  H   -3.52994599472412     -2.35222578823270     -1.13535226324886
  C   -6.18705771569825     -1.72735526269222     -0.22759455131422
  H   -5.26600552930567     -2.90854163329384      1.31156820420519
  H   -5.32999442813452     -3.70898769405756     -0.26106579925735
  H   -7.19908672914587     -2.10708726824988     -0.08564664913695
  H   -6.04171162469474     -1.51727142151727     -1.28733347477300
  H   -6.51952633030379      0.41143864920941      0.06902289131127
  H   -6.42374995171760     -0.51505572333799      1.58324181092804
  C   -2.11312222504528     -0.30339637406461      0.33340767127290
  H   -2.07963237219861      0.58551453329665     -0.29614049588449
  H   -1.41533665242998     -1.04986724248916     -0.03575857288532
  H   -1.82978567362849     -0.00696949133337      1.34115570773068
  O   -4.26589063396555      1.72558953766544      1.12701214846877
  S   -4.42406213183818      2.41789845926970     -0.23149409889095
  O   -5.75593543140067      2.24174411505683     -0.75571572143981
  O   -3.34945185404786      2.06598268681652     -1.12628001736642
  C   -4.21937786927283      4.13790213105052      0.26172735675483
  H   -5.00387549811240      4.36476138494514      0.96877935423705
  H   -4.30378580982998      4.74401379255691     -0.62902237717472
  H   -3.24091126161872      4.23013899994312      0.71009167393662
