100
Coordinates from ORCA-job ./surface_scan.010
  C   -2.60783832035490     -0.98968564363012     -0.49086817709847
  C   -3.03328319154162     -0.22933407011832      0.69582394476206
  C   -3.56817261654638     -0.61953511406526      1.83217803979994
  C   -3.84764111060741     -2.09188984663626      1.99533932035656
  C   -3.75936648174061     -2.87653858649309      0.69530239877087
  H   -4.84465726820919     -2.19999462824912      2.43481926367581
  H   -3.14597774159997     -2.49267668801593      2.73978735208671
  C   -2.53795329235096     -2.46954741275085     -0.11161216204757
  H   -4.65972968220372     -2.68816693045471      0.10204925017803
  H   -3.74073663998122     -3.94856746975502      0.90905185152648
  H   -2.45005962565022     -3.06809932391828     -1.02167896217552
  H   -1.63159829049955     -2.64502468019938      0.47828166837412
  H   -1.63627607382632     -0.63115032430020     -0.84171480499210
  H   -3.31659615508139     -0.83633129226406     -1.31246162943173
  C   -3.93965076051261      0.27382205703470      2.96366293479514
  H   -3.63798044533986      1.30285864060132      2.78562252352242
  H   -3.47201600762478     -0.07910580979420      3.88842759394937
  H   -5.02190783486442      0.23983575132524      3.12349263822564
  O   -2.77534712414685      1.46293782490813      0.60384301461397
  S   -2.62268079328017      1.94068504230353     -0.93883052845745
  O   -3.50980768265072      2.85098138682171     -3.70470173535707
  O   -1.17976813356466      2.00912269641015     -1.25253580008960
  C   -3.10626955725171      3.62179572583780     -0.58431975070776
  H   -4.14884854435116      3.64357545893059     -0.26933149057114
  H   -2.98912128881365      4.18530896958482     -1.50861512030668
  H   -2.44504614910619      3.99734948543024      0.19752876207501
  C   -6.21233873316426      0.86692787985785     -5.98381613471447
  B   -5.51163836934558      0.85877005455754     -3.34120861529238
  H   -4.99504558257565      0.29869030034229     -2.42710158319285
  B   -5.20303437013297      2.21320415418628     -5.85181184138240
  H   -4.50827492158460      2.53015793396827     -6.76208946111489
  B   -7.69696096625640      0.99885952815050     -5.18019686974221
  H   -8.65731394577675      0.48493409096966     -5.65404805104570
  B   -4.86307564228930      0.71311103992386     -4.97358217799636
  H   -3.94546579248354      0.03484714053535     -5.30901809817517
  B   -6.95347153762702      2.38573480091605     -5.97082563700946
  H   -7.41987757580560      2.82342182834776     -6.97151367338553
  B   -6.05948031267667      3.29993977736732     -4.76344748472366
  H   -5.92815425408334      4.48024481988609     -4.86415619547255
  B   -7.26516543925050      1.04490661698403     -3.47150690453635
  H   -8.01286207499827      0.62889683941697     -2.64281686233782
  B   -7.60362004702305      2.55221182971622     -4.34225070152219
  H   -8.58723592899226      3.19656305985297     -4.13299443822147
  B   -6.40808802461314     -0.03654080107705     -4.56261317739361
  H   -6.52328027078207     -1.21771330922520     -4.64352890541340
  B   -4.73369766876606      2.27398742915145     -4.13357191696666
  B   -6.24093291702864      2.46815398126344     -3.21041247284249
  H   -6.25059886593772      3.06982818124807     -2.17784769105925
  H   -2.75370908637360      2.50751872458324     -4.18580167586663
  H   -6.21216959983401      0.32818692638677     -6.92034003953232
  Cl  -3.98365934305438      6.48422377482294     -6.22178304655939
  C   -3.25814745059555      5.90875766574975     -4.72324998903231
  Cl  -3.62375976877968      6.95840708395413     -3.34384575178224
  H   -2.18040508965525      5.89663660276513     -4.84731068462730
  H   -3.64344916530809      4.91943443986043     -4.49195442827943
  Cl  -11.36518267860313      3.55645535910771     -1.46622216629057
  C   -9.85697257275688      2.72249818826797     -1.08698467891875
  Cl  -10.15916825562850      1.08342451081204     -0.49730681701202
  H   -9.34597472315288      3.27809752930267     -0.30717702346782
  H   -9.25367057312049      2.65944620063314     -1.98916059194459
  Cl  -8.39636635695692     -3.36668374485797     -0.84234905911491
  C   -8.57845955999674     -2.08022410175786     -2.04815331789262
  Cl  -10.00876870837049     -2.28071102661821     -3.05063959128807
  H   -7.70268975792615     -2.08491592971748     -2.68814356718538
  H   -8.66260953114226     -1.13918197458884     -1.51816568865343
  Cl  -7.93139699509161      7.24725041424321     -5.83431764857183
  C   -8.72302500259052      5.68028959306866     -5.99181088518070
  Cl  -9.66639829778071      5.55126206528653     -7.48096581816059
  H   -9.39774653980510      5.54534118325033     -5.15249190277806
  H   -7.95576883661559      4.91452877738884     -6.00276406962240
  Cl  -6.35192842859815      5.80680341511780     -0.69598876533316
  C   -7.08081402334148      5.96376904292564     -2.29431146254503
  Cl  -8.84260580684196      6.07387254801068     -2.20860959227066
  H   -6.83302132068509      5.07923674129105     -2.87170846520012
  H   -6.70160145514269      6.86643686165733     -2.76122044039208
  Cl  -11.80182090518190      0.08922793178065     -5.46990414965591
  C   -11.29500636259893      1.45930529058261     -4.47668203027120
  Cl  -11.54319281480670      2.99770192513244     -5.30124339149667
  H   -10.23340637560058      1.35101304414009     -4.27599472027188
  H   -11.88283512159362      1.45844688597939     -3.56458277398842
  Cl  0.05627460298176      5.32198675173235     -3.10479612554567
  C   0.28167047235688      3.60165924814940     -3.43698859088214
  Cl  -0.36215300388182      3.13225254039513     -5.01888120190955
  H   -0.24341094829041      3.03403420038552     -2.66959967427442
  H   1.34825783476667      3.40078864142680     -3.44549114494306
  Cl  -11.21397323168233      1.96455835603522     -9.33028412642379
  C   -9.74769425274876      1.76997551689911     -8.36841838230006
  Cl  -8.63148955386422      0.59737310164521     -9.07267127460596
  H   -10.03479967636822      1.42026229315670     -7.38358374702390
  H   -9.24775802097154      2.73097430309164     -8.31542896740824
  Cl  -10.53750915882294     -1.20719360424359      3.52050454219901
  C   -8.96915424495124     -1.13675736112934      2.71654045870954
  Cl  -7.64652847653635     -1.61642401326160      3.78678568026994
  H   -8.78785310270560     -0.11633844481247      2.39503091318166
  H   -8.98632481950347     -1.81937807405940      1.87260979558371
  Cl  -7.06949805122102      2.17375619832975      1.46839625645272
  C   -6.26740945285946      1.21145484775600      0.21921741091131
  Cl  -6.67111440301299     -0.49875272701895      0.32577689865080
  H   -5.19648773493121      1.30590712925720      0.36506248894184
  H   -6.57755021729314      1.57386275289551     -0.75492847818730
