50
Coordinates from ORCA-job surface_scan
  C   -5.38986730682569      1.38481083951068      0.65520351942686
  C   -5.12008515694031     -0.03215115426377      0.53639351141353
  C   -4.06443826811409     -0.77535852981299      0.66525276397328
  C   -2.76489686734376     -0.04660244613131      1.01716747404976
  C   -2.88226183233865      1.45354417510399      0.75930437930645
  H   -1.95564577374342     -0.47321647532512      0.42237180784610
  H   -2.55176369810529     -0.23615302416724      2.07264994004353
  C   -4.16676363843883      2.01713293078315      1.36015191673320
  H   -2.88762662526339      1.64029541487123     -0.31637285822025
  H   -2.01808401428964      1.96453260073497      1.18890334815029
  H   -4.20781206632678      3.09916340265935      1.23320056462674
  H   -4.20745942637501      1.78598761885061      2.42588311821340
  H   -6.30224521861666      1.56027149062991      1.22843685931925
  H   -5.53821672309207      1.82512735914009     -0.33309764103186
  C   -3.99003364330885     -2.26102444320079      0.52515163695642
  H   -4.98927583986156     -2.67633899637669      0.42557908368009
  H   -3.50338516215793     -2.69524359455349      1.39703814726883
  H   -3.40597377339074     -2.52529727680928     -0.35561433509261
  O   -8.16187740306571     -2.27189490858976     -0.37455287421858
  S   -7.17042845647635     -1.13170107671962     -0.49356054876852
  O   -8.20536095871505      0.93611377144191     -3.29846566001063
  O   -7.86953866263182      0.16383886867779     -0.70145957129431
  C   -6.34627256980476     -1.48713762821700     -2.13864055975536
  H   -6.07215347843382     -2.53461501008463     -2.15695085267648
  H   -5.47802249174655     -0.84603232595453     -2.22335250993615
  H   -7.05972053235085     -1.25746185799569     -2.92239653180812
  C   -6.96799413970155      4.83093809823713     -3.37459056295733
  B   -5.72965767397156      2.37632470025764     -3.23314781935157
  H   -5.12668441476464      1.56055718088608     -2.61403202715609
  B   -8.21680228336022      3.73792468187896     -3.71187714421935
  H   -9.31891874484967      3.99027777725836     -3.35286109291370
  B   -5.76369849190623      4.89500905808644     -4.57903849972452
  H   -5.25028770206142      5.93997790619191     -4.79641012974416
  B   -6.98406503677062      3.37598802889163     -2.49367329453162
  H   -7.29106894950839      3.41435301573999     -1.34727168718299
  B   -7.46235826507603      4.65823112708614     -5.00205207695080
  H   -8.07090874219181      5.54751354555261     -5.49613936977920
  B   -7.75068761371849      2.92845847940238     -5.22748295165382
  H   -8.56698602540223      2.52657027241184     -5.99083845466710
  B   -4.97492419979009      3.31258113903625     -4.53336106884891
  H   -3.83224234623221      3.16553075084938     -4.81361884396928
  B   -6.21898505504197      3.66662348087071     -5.76738594900529
  H   -5.94851526921856      3.77868016579341     -6.91677124887359
  B   -5.47094744644892      4.10533000957561     -3.02604460157427
  H   -4.76725004511889      4.62662775736221     -2.22752486099025
  B   -7.46953642867045      2.10932833283750     -3.65817997344199
  B   -6.20545403300949      2.09717442466975     -4.94098472368472
  H   -5.92800665235342      1.08223312158995     -5.49306488021497
  H   -8.14066715685711      0.73236326285764     -2.35309289052637
  H   -7.22577369621736      5.74807395847381     -2.85356997623245
