50
Coordinates from ORCA-job surface_scan
  C   -5.60100994994197      1.38635843570418      0.73664703295391
  C   -5.32632741812536     -0.00010295063334      0.27333998114869
  C   -4.14825322332120     -0.60678972567998      0.26953118757884
  C   -2.90723004651658      0.12996074281979      0.70558465848186
  C   -3.12505606905870      1.63924463136527      0.76679027250561
  H   -2.09704113497568     -0.10726949321998      0.01296344467969
  H   -2.61584079425028     -0.24383670672468      1.69205065053735
  C   -4.41412757533466      1.94301502773362      1.52258435999216
  H   -3.20602396274810      2.04192299545005     -0.24440155546468
  H   -2.27454502154846      2.11527221754420      1.25779109570782
  H   -4.53785232748504      3.01866491528451      1.65180397484570
  H   -4.37666274014554      1.47867470820802      2.51022077140199
  H   -6.51177912431372      1.37732844890556      1.34012111401805
  H   -5.80753416115578      2.01433435904986     -0.13381507831039
  C   -3.95185438605503     -2.03179029740997     -0.14179122822383
  H   -4.89321200267448     -2.57146652196437     -0.11820151900537
  H   -3.24764469892308     -2.51309053384705      0.53488945734552
  H   -3.53266353541577     -2.08326145879326     -1.14625620949869
  O   -7.16546298328644     -2.11139795183900      0.27702639926041
  S   -6.81335249322205     -0.85109003562534     -0.39320769296449
  O   -8.33380226099836      0.94998791894808     -3.08287394567463
  O   -7.88689203481703      0.12951159469985     -0.36480334211587
  C   -6.44117029806504     -1.28015303914414     -2.12120862206509
  H   -6.52911237972039     -2.35343622229721     -2.22466668682334
  H   -5.44572105258367     -0.93375267414495     -2.35851475813066
  H   -7.16289460713387     -0.75828505118726     -2.74390829584896
  C   -6.82254112890803      4.76056321537794     -3.39883099955553
  B   -5.75458764471776      2.24380522389710     -3.03817225403601
  H   -5.21403050429725      1.45382784875431     -2.32691160726821
  B   -8.12807712151177      3.72195419340837     -3.71290722043450
  H   -9.22353980667941      4.09100129917469     -3.42664083207470
  B   -5.56886912113690      4.66199664047241     -4.54709843153358
  H   -4.98110345654650      5.65983490420843     -4.81427183002910
  B   -6.97447963356444      3.37108802759719     -2.42649997234156
  H   -7.31615910047171      3.51501494226585     -1.29216926615998
  B   -7.25756971015234      4.50396059194822     -5.02588753200990
  H   -7.78127454071478      5.39826057016031     -5.60996689793219
  B   -7.65710102326030      2.78428436863212     -5.13916845937286
  H   -8.46485886720932      2.38129012369597     -5.91588924816434
  B   -4.88518341950386      3.04607651785083     -4.36137201833522
  H   -3.73845150243559      2.81929405157827     -4.58288665679050
  B   -6.05850923040753      3.37476972979243     -5.66221238848055
  H   -5.73806145620343      3.39068402652011     -6.80844976406896
  B   -5.39144198883522      3.96255854804564     -2.93639638209974
  H   -4.68888080711564      4.49743227232242     -2.13896325184316
  B   -7.48028021932458      2.06899606441023     -3.51461741152904
  B   -6.17810381650364      1.87382973949420     -4.72123054023310
  H   -5.94041088377024      0.81078863356700     -5.20537341318699
  H   -8.35809454034471      0.88935078149693     -2.12516983958815
  H   -7.03695419456797      5.72804435212576     -2.95139924926327
