76
Coordinates from ORCA-job surface_scan
  C   -6.49478635963999     -0.49688088861529     -0.60918034795025
  C   -5.14284738951778     -0.87722943719171     -0.38951271778185
  C   -4.35263555558721     -1.88859449460580     -0.41642375725183
  C   -5.13164082229661     -3.18690760423484     -0.68079050347699
  C   -6.63825877868993     -3.01134482669427     -0.54411748549544
  H   -4.76708457280698     -3.93203853612690      0.02681956479370
  H   -4.87207269485539     -3.50046503259290     -1.69478701287848
  C   -7.10847996989514     -1.76233890998105     -1.27737416296825
  H   -6.90500093679874     -2.93466721241377      0.51090270400736
  H   -7.13512094780665     -3.88918869898551     -0.96029610764804
  H   -8.19295586255096     -1.66558184837169     -1.23998130666258
  H   -6.79105657030875     -1.80864775345961     -2.31885036664471
  H   -6.54433307690926      0.34072356493573     -1.30903356879030
  H   -7.01269838363323     -0.24486690875456      0.31841883755234
  C   -2.88120024940816     -1.99105685135813     -0.27286072947666
  H   -2.47788083931494     -1.01618992720251     -0.02189270898644
  H   -2.44724206548082     -2.32925699490587     -1.21310011176789
  H   -2.62334015553429     -2.71092155017521      0.50079439079456
  O   -4.00288887295144      1.02120241056519      0.17700359968524
  S   -4.38880844692349      2.12479772292568     -0.76151851957242
  O   -4.86469148222522      1.60299948556580     -2.03258822722619
  O   -3.30365585597545      3.07198008780356     -0.89217399377746
  C   -5.78249108243675      2.97387361607350     -0.02474002837534
  H   -6.61389647697428      2.28611679556056     -0.01279234145425
  H   -5.98947027660961      3.82556941347898     -0.65745431311082
  H   -5.51024569569264      3.28571713933513      0.97218185036424
  Cl  1.13280032120042      1.24318265773885      0.11943655172089
  C   0.88726012968143     -0.49909764293083      0.36598701186378
  Cl  -0.11935749507702     -0.79507569781828      1.78416890385943
  H   1.85514016233599     -0.96725210190381      0.53855257508573
  H   0.37641399231112     -0.91231324166746     -0.50324280011069
  Cl  -4.38163964395033     -0.52268615085944     -3.54073145508379
  C   -3.86001824411623     -1.87494266556263     -4.60891589104753
  Cl  -4.79389153500388     -3.33487448015838     -4.29768961294573
  H   -2.81357607762257     -2.10225794744705     -4.40938723019748
  H   -4.02381478989963     -1.58908927544302     -5.64646212855383
  Cl  -0.44750117229873     -1.40353842972031     -3.04167135037331
  C   -0.63569956308748      0.34681949563219     -3.11523569060263
  Cl  -1.78727664978503      0.94372323091678     -1.86396262036804
  H   -1.02869541405037      0.59497180031309     -4.10190692041474
  H   0.34279191889706      0.79273441989050     -2.94186527682954
  Cl  -1.93945477129025      4.00291106055877     -3.65512961222404
  C   -3.34024144611594      3.11403445073770     -4.25764755604902
  Cl  -2.85794494679238      1.93662401006378     -5.47709059411070
  H   -4.02046857311938      3.82002506853349     -4.73277395143294
  H   -3.81611690846924      2.58581997117026     -3.42508669028862
  Cl  -6.28670599045768      6.30137057473481      1.51280821975244
  C   -4.53978244913941      6.27798414394148      1.76304493466769
  Cl  -3.70213122648490      5.57428087365442      0.34865073573952
  H   -4.33279099271154      5.65575427374286      2.63318390924078
  H   -4.20463252953104      7.30401090774701      1.90094824068248
  Cl  -9.65984127517075      0.51520512232226      3.89772144186921
  C   -9.78927787062820     -0.86740357473446      2.80476662859941
  Cl  -8.26401422693842     -1.76219918570558      2.72114438210680
  H   -10.02064506157495     -0.48688545939625      1.81064253204415
  H   -10.55971798655761     -1.53368295655002      3.18956862137382
  Cl  -6.49641688430940      1.08728537988054      2.74357342310593
  C   -6.33772092670358      2.09897366047889      4.17087078066751
  Cl  -6.60329251156894      3.80565202551606      3.76568764014036
  H   -5.32233746652860      1.99255546086912      4.55073571319212
  H   -7.09372218752710      1.79305160228738      4.89305506777663
  Cl  -9.29674164974578      1.66244420377095      0.41042618327276
  C   -9.24043603179860      3.16116278453455      1.33100455787313
  Cl  -9.07457449305974      4.55804856291315      0.25038814979325
  H   -8.37329115646521      3.12499569278375      1.98961910695701
  H   -10.17346090647260      3.24958826978783      1.88540265301687
  Cl  -3.57706486026910     -0.00991682575217      4.42952578458807
  C   -3.61803700523998     -0.77022720304150      2.83569402657169
  Cl  -4.83640865776713     -2.04705927721511      2.78962817814996
  H   -2.64277381641486     -1.22242835044861      2.66009683441951
  H   -3.87228486607458     -0.02580902260290      2.07738057637054
  Cl  -0.58111260032197      3.56144948615253      2.35961130698700
  C   -1.89646663008775      2.61343550642380      1.65352077317304
  Cl  -3.38998768943321      2.87515383764100      2.51913362422855
  H   -1.64827709021457      1.55548544566000      1.73229157582092
  H   -2.06460883372614      2.92487274798542      0.61938610002042
