76
Coordinates from ORCA-job surface_scan
  C   -6.49351250928892     -0.50618786574239     -0.61412625551107
  C   -5.14953404588324     -0.90015079340663     -0.39092149318039
  C   -4.35408439741706     -1.90500886539686     -0.41707575100451
  C   -5.13980286552874     -3.20266294695462     -0.67981667714777
  C   -6.64677954576867     -3.02083870367652     -0.55591899076165
  H   -4.78325856348146     -3.94442727249133      0.03531449669576
  H   -4.87267567022470     -3.52023595354078     -1.69060551168236
  C   -7.10753078957409     -1.76911580174923     -1.29071840696736
  H   -6.92248265667115     -2.94534915546078      0.49689759085867
  H   -7.14305669853559     -3.89606310609044     -0.97834840380272
  H   -8.19178083321049     -1.66767347215110     -1.25948476898363
  H   -6.78309193231698     -1.81378959358367     -2.33004094186012
  H   -6.53080538152345      0.33254747626387     -1.31407567326347
  H   -7.01559798323188     -0.25264256235625      0.31049940412909
  C   -2.88332811258676     -2.00914527344911     -0.27514292350542
  H   -2.47946163270358     -1.03334843881975     -0.02767317125406
  H   -2.45022816606837     -2.35035700001185     -1.21464268790754
  H   -2.62551930506338     -2.72599303063884      0.50130983306872
  O   -3.98105320091859      1.04311335186742      0.19844798871847
  S   -4.37674155264041      2.13164044396200     -0.74744833825223
  O   -4.85541341704715      1.59312001583637     -2.01200207244385
  O   -3.30275224750574      3.09004644994136     -0.89789460793612
  C   -5.77759805735649      2.97772617880821     -0.01905562406975
  H   -6.60473314762287      2.28479707830155     -0.00463067051825
  H   -5.98791568685568      3.82354884389567     -0.65844501329426
  H   -5.50955279855272      3.29807462473638      0.97629218596866
  Cl  1.14339614547941      1.22642984914656      0.11919913898080
  C   0.89196218402864     -0.51493259912490      0.36598144453467
  Cl  -0.12349290393871     -0.80657988066316      1.77877722083550
  H   1.85756012362262     -0.98550435150868      0.54456022456812
  H   0.38448694438443     -0.92818212596048     -0.50521465950143
  Cl  -4.37474612830491     -0.51932858155790     -3.53405135758384
  C   -3.86674352275497     -1.87343463070957     -4.60706816568378
  Cl  -4.79914496383348     -3.33167542600806     -4.28543988857755
  H   -2.81858287811417     -2.10239297463024     -4.41852681912696
  H   -4.04115508706822     -1.58820081811165     -5.64307957276583
  Cl  -0.45787185078462     -1.40244224502993     -3.04215301649547
  C   -0.63953073688472      0.34875739932732     -3.10650087110900
  Cl  -1.78593648886931      0.94423342648288     -1.84921410090554
  H   -1.03394201257060      0.60313210933045     -4.09106001376055
  H   0.34124843757003      0.78980311810533     -2.93348541454660
  Cl  -1.93560198486828      4.01294285044297     -3.63609619972898
  C   -3.33970577368403      3.12382121522329     -4.22930732729549
  Cl  -2.86613646627062      1.95527690193888     -5.46066334354223
  H   -4.02689134399870      3.83048610074241     -4.69331625534671
  H   -3.80587604206345      2.58905979279654     -3.39537742864520
  Cl  -6.30007704616644      6.30831460470269      1.51216936234827
  C   -4.55205887066327      6.29454073264910      1.75438214587586
  Cl  -3.71731219355377      5.58954776467428      0.33865106593888
  H   -4.33793806737078      5.67645851085929      2.62577895595094
  H   -4.22159040020379      7.32277580950746      1.88694005296020
  Cl  -9.64755259783057      0.51136969431505      3.90166229197873
  C   -9.79191124415638     -0.86741918428370      2.80567959920217
  Cl  -8.26679194435786     -1.75920078968838      2.69492846706726
  H   -10.03890039784641     -0.48395534027644      1.81645690679393
  H   -10.55499483378764     -1.53671442553420      3.19978333916012
  Cl  -6.49063112513124      1.08894518160885      2.73690556743240
  C   -6.32813085803003      2.10156037165256      4.16308554706483
  Cl  -6.60803169015768      3.80671903135950      3.76067104425704
  H   -5.30922719950931      2.00204203053178      4.53531557084132
  H   -7.07658880499132      1.79030742164176      4.89080239599716
  Cl  -9.29706618307765      1.65552654767347      0.40808840629826
  C   -9.24191694948481      3.15454627634079      1.32785063304280
  Cl  -9.07474035602584      4.55098023683543      0.24675350019443
  H   -8.37561823207356      3.11881534432358      1.98757171639873
  H   -10.17561781439790      3.24327148122356      1.88106897498319
  Cl  -3.56681784808173      0.00150931306238      4.42885798025614
  C   -3.60917330319971     -0.75790421141674      2.83438107534261
  Cl  -4.83203634402840     -2.02996676651129      2.78684996599051
  H   -2.63542165086870     -1.21368439509973      2.65981203233097
  H   -3.85931283850353     -0.01178654289066      2.07599016909704
  Cl  -0.56570887245327      3.56214680956445      2.33712490032840
  C   -1.89642037815177      2.62619274155537      1.64400830171109
  Cl  -3.37868061029571      2.90121870352790      2.52394648057621
  H   -1.65751300998231      1.56598058706397      1.72007348650715
  H   -2.07185278911633      2.93863870270315      0.61126295367659
