76
Coordinates from ORCA-job surface_scan
  C   -6.49657061968588     -0.51284795510191     -0.62360460555457
  C   -5.16439591738589     -0.93130652816264     -0.39498956364159
  C   -4.37448164669273     -1.93832447649533     -0.41885780647974
  C   -5.18117150561349     -3.22704202471021     -0.68050946293841
  C   -6.68688314673497     -3.02317268386682     -0.57880201632539
  H   -4.84451252810240     -3.96708190140985      0.04583952710898
  H   -4.90393482989132     -3.55406367008383     -1.68556835383434
  C   -7.12045608657049     -1.76351159494084     -1.31669774312831
  H   -6.97788322261953     -2.94655096317052      0.46983576911165
  H   -7.18855651491053     -3.89059876214620     -1.01104675655353
  H   -8.20315830221452     -1.64473585389791     -1.29907493008531
  H   -6.78191751004405     -1.80833142382982     -2.35143321563039
  H   -6.51100587384158      0.33225235814846     -1.31817780668771
  H   -7.02414972125159     -0.25814157772649      0.29748780179056
  C   -2.90607972689399     -2.06595551205768     -0.27926532924500
  H   -2.48508170914144     -1.09745578673481     -0.03185417998125
  H   -2.47920109189905     -2.41282049024377     -1.21953422778501
  H   -2.65875948398264     -2.78723686040282      0.49645429607633
  O   -3.97005113121452      1.06245641288556      0.20371712664693
  S   -4.38458005781583      2.13972173914711     -0.74126956318471
  O   -4.87787539517891      1.59156086738935     -1.99795383120004
  O   -3.32360258287272      3.10894985135986     -0.91848857424879
  C   -5.78447092063057      2.97933515346834     -0.00220698851103
  H   -6.60168535971674      2.27548790105480      0.03277849794009
  H   -6.01484064140944      3.81386593331776     -0.64940844969095
  H   -5.50701822893796      3.31576036500629      0.98515921449088
  Cl  1.19870743429720      1.22834006806429      0.08005980679977
  C   0.93765688282416     -0.50726078251655      0.35578647882432
  Cl  -0.12759888184048     -0.76863361589443      1.73711550688697
  H   1.89601871004746     -0.97356771221441      0.57899102672106
  H   0.46127457966634     -0.93939036162641     -0.52374498598413
  Cl  -4.38227588709031     -0.50415726047195     -3.52807785115773
  C   -3.85922897936874     -1.85544804243070     -4.59835038212659
  Cl  -4.76936840703251     -3.32505103965515     -4.26724531072329
  H   -2.80733380349777     -2.06964541407370     -4.41319253571563
  H   -4.04185867588980     -1.57714201397774     -5.63482402847948
  Cl  -0.45299313837616     -1.40025431525404     -3.03372935089703
  C   -0.65446280008227      0.34996563152159     -3.06892553492870
  Cl  -1.79693102375657      0.91140253042703     -1.79297988590292
  H   -1.05906937228926      0.61548611743118     -4.04642531863050
  H   0.32271178983363      0.79959637197132     -2.89724529992515
  Cl  -1.84578100980632      3.97012970867133     -3.58016814280175
  C   -3.28480865979252      3.13759589980631     -4.16846452366650
  Cl  -2.86583708591111      1.98079238584582     -5.43063112896789
  H   -3.95683520169803      3.87461287267316     -4.60669000658675
  H   -3.75487356943676      2.60013247467742     -3.33900937375242
  Cl  -6.31535734323419      6.33228261397548      1.49677818191869
  C   -4.56614593943044      6.32036736549560      1.73156826336262
  Cl  -3.73764100462504      5.60348932180183      0.31797391920172
  H   -4.34805215761577      5.70940496595329      2.60698943457147
  H   -4.23512611674869      7.34963588119855      1.85421872616151
  Cl  -9.64592848520152      0.51250508423551      3.90090769816317
  C   -9.79377660068044     -0.88307025030753      2.82620769975611
  Cl  -8.25384385168251     -1.74339083298816      2.68094502882227
  H   -10.07786057988722     -0.51805635716783      1.84006787627540
  H   -10.53008103090134     -1.56353478095846      3.25090510022315
  Cl  -6.48305047285577      1.09556145740841      2.75755669503082
  C   -6.30002361936828      2.13292937297323      4.16290534534616
  Cl  -6.62922212887510      3.82589475613326      3.74549473745662
  H   -5.26831730858345      2.06107470058821      4.50516541595297
  H   -7.01887682630954      1.81662276428551      4.91777046208035
  Cl  -9.30374907803401      1.61198182617321      0.40759362179395
  C   -9.26158668244326      3.10991533462018      1.32931130437356
  Cl  -9.08621285689984      4.50831802632360      0.25192852500074
  H   -8.40222162271841      3.07463896089278      1.99813769213347
  H   -10.20118130295872      3.19576125174818      1.87295711197622
  Cl  -3.54665581076997      0.02493373246348      4.40150023694494
  C   -3.60200332899749     -0.74413240337797      2.81215970071692
  Cl  -4.82352232052560     -2.01831376926241      2.78407954275861
  H   -2.62948138940573     -1.20057637464915      2.63238144081774
  H   -3.85949661928712     -0.00334834205076      2.05069624505956
  Cl  -0.53495701566600      3.54302363397139      2.29852145337191
  C   -1.89180841044140      2.64685495581068      1.60370842058781
  Cl  -3.35684774527358      2.93274539454757      2.50748305465312
  H   -1.67303943732561      1.58087101126939      1.65574075983349
  H   -2.07335205880081      2.98156467912249      0.57907831820995
