50
Generated by autodE on: 2023-02-28. 
C    -0.86507  -0.79860   1.24111
C    -0.29556   0.09075   0.16582
C     0.91619   0.67607   0.25215
C     1.82200   0.44710   1.44045
C     1.09425  -0.10861   2.66441
H     2.30799   1.38621   1.73041
H     2.61745  -0.24623   1.13931
C     0.16594  -1.25102   2.27592
H     0.51176   0.69121   3.13963
H     1.82623  -0.45152   3.40434
H    -0.34775  -1.63527   3.16469
H     0.75863  -2.07932   1.86783
H    -1.32572  -1.68755   0.79616
H    -1.66672  -0.24718   1.74854
C     1.47495   1.59592  -0.79898
H     0.71076   1.95004  -1.49705
H     2.25819   1.08597  -1.36851
H     1.90973   2.48784  -0.33595
O    -1.14346   0.30185  -0.90935
S    -1.01370  -0.60828  -2.26757
O    -1.27913  -1.99814  -1.95604
O     0.15671  -0.20250  -3.02082
C    -2.43966   0.05345  -3.09213
H    -3.33909  -0.34688  -2.62122
H    -2.39705  -0.24817  -4.14090
H    -2.41786   1.14285  -3.02223
C     4.87446  -0.10736   6.01653
B     2.74998  -0.67761   7.69164
H     1.70225  -1.18345   7.88005
B     5.58105  -1.05931   7.23777
H     6.47866  -1.77878   6.96975
B     4.34691   1.41992   6.56911
H     4.38157   2.32828   5.81742
B     3.97298  -1.42748   6.61804
H     3.81071  -2.35101   5.90033
B     5.82410   0.67632   7.19520
H     6.87736   1.10932   6.88649
B     5.40769  -0.10153   8.73914
H     6.20156  -0.17229   9.61097
B     2.99198   1.04651   7.68596
H     2.10928   1.80338   7.88155
B     4.64884   1.45154   8.27879
H     4.85403   2.45596   8.86169
B     3.20328   0.10295   6.18074
H     2.54945   0.19254   5.20340
B     4.24645  -1.43820   8.34924
B     3.70551   0.10735   9.04230
H     3.25716   0.20221  10.12781
H     4.14822  -2.42158   8.99161
H     5.27651  -0.17768   5.01209
