26
Coordinates from ORCA-job surface_scan
  C   -5.90119172709882     -0.21989613484797      0.78677549363244
  C   -4.44626293691828      0.03742272329671      0.60950681695849
  C   -3.51152137665597     -0.79813272466802      0.19619301449647
  C   -3.89405007911750     -2.21728116650478     -0.14334641116196
  C   -5.26314077999339     -2.60372423709728      0.40953617788865
  H   -3.12683571055962     -2.89259949615689      0.24125569115396
  H   -3.89317646873234     -2.31209052888613     -1.23343843607363
  C   -6.28288493480083     -1.52052837892675      0.07753860812199
  H   -5.19978602741302     -2.71976587270930      1.49299862879588
  H   -5.57389016922422     -3.55915411259524     -0.01652572875740
  H   -7.28361660772373     -1.82663105646925      0.38587431156384
  H   -6.29196857469622     -1.35321747785702     -1.00085011998554
  H   -6.47053911554300      0.61824483667596      0.38013027698769
  H   -6.12922366541580     -0.28509389099678      1.85554690022654
  C   -2.07106480967038     -0.44234578060903      0.01656352388595
  H   -1.89312318615769      0.60877900585940      0.22493926662984
  H   -1.76975145230256     -0.64629511539726     -1.01046105925953
  H   -1.45096774567214     -1.04802578840957      0.67780257594919
  O   -4.05768853767591      1.47922926789619      0.99759441186753
  S   -3.67431454881527      2.45064590130285     -0.18790566395010
  O   -3.91434035183853      1.81805527411612     -1.45677039994922
  O   -2.35148837399783      2.96750810439611      0.04824589674685
  C   -4.85976409702736      3.77777300492918      0.06897283924991
  H   -5.83763706331964      3.40996527798240     -0.20752029685659
  H   -4.56161436642285      4.60472772009259     -0.56112052444415
  H   -4.81295729320705      4.04914064558374      1.11430420628290
