26
Coordinates from ORCA-job surface_scan
  C   -5.92168301948642     -0.24640030630960      0.76056783384772
  C   -4.47386106657344     -0.00969566962151      0.59305149362290
  C   -3.51251994325190     -0.81155765450127      0.19595350501568
  C   -3.88357657308002     -2.23763944161857     -0.14117829360285
  C   -5.25182396413447     -2.63105816778758      0.40915253191931
  H   -3.11164300301770     -2.90345820071302      0.24971450145672
  H   -3.87761039165811     -2.33309054412898     -1.23081933818704
  C   -6.28413045961152     -1.56338755487371      0.06436294844069
  H   -5.19149983329828     -2.73808081282788      1.49363260675567
  H   -5.55093004832990     -3.59282826784657     -0.01085522815887
  H   -7.28121953273251     -1.87758693237630      0.37530993789244
  H   -6.29382834041625     -1.40661687668343     -1.01541675052027
  H   -6.48363774075285      0.58149610871390      0.32477161610913
  H   -6.16650552509878     -0.29135963455381      1.82625277839124
  C   -2.07680126565634     -0.44016852660968      0.03156099096954
  H   -1.92395828868796      0.62296832703556      0.19228845574030
  H   -1.74865765186115     -0.69043632282038     -0.97657555023191
  H   -1.46334308836261     -1.00107817293080      0.73690978616964
  O   -4.06875917187562      1.54113853154518      1.01367980459768
  S   -3.70636412471875      2.46894996480372     -0.19255289629007
  O   -4.03650822989727      1.83486655141491     -1.44286753484790
  O   -2.35026159944289      2.93629931171190     -0.04074490695430
  C   -4.81801733623781      3.85198480065436      0.09809202648073
  H   -5.82714717722606      3.51275765568755     -0.08726825036223
  H   -4.53760215832247      4.64075394825791     -0.58625701589042
  H   -4.68091046626884      4.15993788637811      1.12507494763646
