26
Coordinates from ORCA-job surface_scan
  C   -5.85997118218487     -0.17288530638734      0.85646980538426
  C   -4.38126061525768      0.14946698626447      0.68112613927631
  C   -3.51443416858944     -0.76354326407377      0.22401108366031
  C   -3.91496245207287     -2.16829103404300     -0.13303012530682
  C   -5.29962586930494     -2.54187109129265      0.38307168087300
  H   -3.16959856572441     -2.86505640265786      0.25886763256669
  H   -3.89389870269412     -2.25827239065727     -1.22401828709139
  C   -6.27362620160037     -1.41302098705734      0.07535834139624
  H   -5.26079361266930     -2.69864006452233      1.46261723711700
  H   -5.63061660001225     -3.47211161624820     -0.08213256420799
  H   -7.29327280179190     -1.69846139103000      0.34160871334309
  H   -6.24621511649659     -1.19555243905403     -0.99368945624918
  H   -6.43880350783611      0.69693874842180      0.53337270203712
  H   -6.06406316553779     -0.31918195073450      1.92229743112859
  C   -2.06838307758018     -0.43219825566578      0.00266547678058
  H   -1.82738146739673      0.56142247914634      0.37145634628122
  H   -1.84138254297817     -0.46212511401422     -1.06259928932520
  H   -1.43287774639174     -1.16181188836671      0.50514516180062
  O   -4.05682312011228      1.32516319840112      0.98589964560466
  S   -3.60172291761946      2.38775047953568     -0.17276053246019
  O   -3.68906388281796      1.75560842927851     -1.44987404919923
  O   -2.37396919926535      2.99771318648586      0.22039169242904
  C   -4.92033980998415      3.61255439474473     -0.00745842217857
  H   -5.83456054692224      3.16950202577788     -0.37647432133934
  H   -4.64440651574188      4.47638540781988     -0.59694713404459
  H   -4.99074661141718      3.86722785992872      1.04046509172376
