26
Coordinates from ORCA-job surface_scan
  C   -5.89422235699242     -0.20600730801969      0.83706722331565
  C   -4.43295002076996      0.08318970219217      0.66292357692616
  C   -3.51947041578978     -0.77231173101530      0.22336143253833
  C   -3.90384900325049     -2.18149058216681     -0.14243089769973
  C   -5.28099448291589     -2.57362601258054      0.38331531702297
  H   -3.14684263507717     -2.87018651571086      0.23979615454260
  H   -3.88941713929980     -2.25994574810725     -1.23379671688725
  C   -6.28335167105929     -1.46890597048985      0.07373699564960
  H   -5.23209670997718     -2.72220412530176      1.46360765233692
  H   -5.59649715911044     -3.51341197929492     -0.07329706904435
  H   -7.29323863882066     -1.77514479099416      0.35211295450309
  H   -6.27010875223865     -1.26225690854050     -0.99750245663471
  H   -6.46989294654585      0.65181601622902      0.48170620919860
  H   -6.11255847180185     -0.32630252030117      1.90322326782940
  C   -2.08095847412087     -0.41428317902790      0.02341891290187
  H   -1.86236328287509      0.58022905728095      0.40055217341377
  H   -1.84688128103234     -0.43248924734200     -1.04040254201960
  H   -1.43973818053228     -1.13878262386450      0.52526954436248
  O   -4.07757747478401      1.42089152481338      1.01659080709637
  S   -3.62325783891526      2.39402588782006     -0.17221041332944
  O   -3.79182452876122      1.73902167135836     -1.43157099785078
  O   -2.34647069268909      2.94865048287252      0.14716238684930
  C   -4.86486072447020      3.69044367555703      0.00639173678421
  H   -5.81884093287094      3.28220278610162     -0.29588423943936
  H   -4.57592760407924      4.51396477647307     -0.63218138023145
  H   -4.86860858121999      3.98962366205904      1.04488036786535
