76
Coordinates from ORCA-job surface_scan
  C   -7.03316885338729     -0.48911142682456     -0.31893257439369
  C   -5.95537807448456     -1.35418231271452     -0.34794501731835
  C   -5.49770698447672     -2.47195875135472     -0.75424465401903
  C   -6.72774513361923     -3.29724838799364     -1.24566180317853
  C   -8.07124785157852     -2.58726140411135     -1.13747887711015
  H   -6.73939401148973     -4.22471338771291     -0.67412565059967
  H   -6.48516462114805     -3.50075266389301     -2.29117249458040
  C   -7.95573059586319     -1.09226358749932     -1.42191221103364
  H   -8.48136668945251     -2.72673646228089     -0.13644726440594
  H   -8.76113853768640     -3.03731440357252     -1.85310229226522
  H   -8.92279524757719     -0.59580045325583     -1.36002817678986
  H   -7.52295150684104     -0.92053176012276     -2.40607379005107
  H   -6.74638611420694      0.54167380142501     -0.68141224917641
  H   -7.51630496443104     -0.40139033926977      0.65434549404846
  C   -4.16992147065098     -3.11337926226591     -0.84088052319543
  H   -3.39003966259986     -2.39836026552307     -0.60097934196548
  H   -4.00610257597255     -3.49775416399022     -1.84523746040912
  H   -4.12183062790917     -3.94536205901710     -0.14018981244302
  O   -4.85129133745723      1.68918514527496      0.59303173808206
  S   -5.18318760482764      2.56276476510486     -0.53535218505128
  O   -6.32730532787179      2.02168601986129     -1.27919286492806
  O   -4.03321912096831      2.82649837953600     -1.38592924641853
  C   -5.73368224154507      4.14581305182812      0.10250010920232
  H   -6.48474626535345      3.96406077436414      0.85658660492595
  H   -6.14960509851038      4.67256414114922     -0.74470352751370
  H   -4.89151473034686      4.67907514453036      0.51758906265730
  Cl  1.59092190596400      1.64988076907939      0.06193217454805
  C   1.31084159152076      1.56199634730733      1.81091787847104
  Cl  0.08627445377749      0.35018179077894      2.19496018375629
  H   0.94952423526037      2.53298037365442      2.15004227719199
  H   2.23797637033648      1.26973133429931      2.30167190624340
  Cl  -5.01704720523500      0.55581785695850     -3.11010245896524
  C   -4.28096180699416     -0.72376374760545     -4.15199623279944
  Cl  -5.30751345539979     -2.14106545030498     -4.24306790771668
  H   -3.32894939688825     -1.03279496409274     -3.72061246667305
  H   -4.16155480062658     -0.33685424155448     -5.16277123783646
  Cl  -1.22055982885945     -1.76465656778356     -2.34694795029580
  C   -1.03772416044194     -0.39949876585224     -1.25350933187107
  Cl  -2.63345506634842      0.33039988115232     -0.82781013415866
  H   -0.43768067826953      0.35778061986596     -1.75675015364510
  H   -0.55939683557745     -0.75632237017304     -0.34302616738540
  Cl  -0.43413036611280      3.01005257544518     -2.28148040007188
  C   -1.79312222074891      2.81022299808963     -3.39206026382845
  Cl  -1.56475375286531      1.38376672746050     -4.40688990358691
  H   -1.83329287440485      3.68574535964525     -4.03850953533254
  H   -2.70428563836175      2.69102178164201     -2.80015946079411
  Cl  -3.17379607434699      7.16893415036855      0.74017865661776
  C   -2.35939770559581      6.86885294290038     -0.79992068652210
  Cl  -3.07176703304691      5.44871534313259     -1.62234699031989
  H   -1.31093419222153      6.65858437807027     -0.59476586794228
  H   -2.49058699846664      7.74375324928452     -1.43321275957130
  Cl  -6.00772481659710     -3.74695678081663      4.80025668432960
  C   -7.32366726367704     -3.24698879959996      3.72639570693687
  Cl  -7.08678227948740     -3.88846243353685      2.10791021471489
  H   -7.33040264323582     -2.15931671270763      3.65936861806670
  H   -8.26083699940337     -3.64413066646502      4.11380672171357
  Cl  -7.43619137772090      0.38496769489811      3.24183861837481
  C   -6.34649252626142      1.76144329173024      3.21837436066576
  Cl  -7.25220422146547      3.26938216697068      3.43662681045207
  H   -5.83810091196392      1.78258631235474      2.24696257387622
  H   -5.65007584888645      1.65704961557354      4.04964478859020
  Cl  -10.33142395119716      0.16492382262500      1.19485400675726
  C   -9.98027070417304      1.88915840027271      1.30968960858353
  Cl  -8.61731009012922      2.33505676678221      0.23180990356382
  H   -9.70020456109471      2.10875823371466      2.33871489538714
  H   -10.86835122331435      2.43688190023267      1.00063364694551
  Cl  -3.23660206014360      0.33902616473208      4.01021537147424
  C   -3.46752678590126     -0.33971647299064      2.39319548400526
  Cl  -4.63954876885158     -1.64902186439871      2.42429451926376
  H   -2.51286477733348     -0.74440846212420      2.05921684788656
  H   -3.85303706149637      0.43619388645882      1.72747597698907
  Cl  -0.81418941468856      4.23555945606855      0.94450732481516
  C   -2.16164097058451      3.10379740019273      1.02624532306271
  Cl  -3.24883594147179      3.52643142068806      2.34712875940767
  H   -1.75871032085890      2.11142889376410      1.22396272136402
  H   -2.71733769585324      3.13736426214025      0.08556635319197
