76
Coordinates from ORCA-job surface_scan
  C   -7.07184180273325     -0.44826928606349     -0.36696833437731
  C   -5.97335025188932     -1.28671842089831     -0.36540827554735
  C   -5.49179345632807     -2.40879059093590     -0.73087711047647
  C   -6.70666984639403     -3.27307360432901     -1.19600130482348
  C   -8.06379744588100     -2.58469722542648     -1.12549189489111
  H   -6.70604408226420     -4.17800616391397     -0.58950553595824
  H   -6.45217753906925     -3.51064442326896     -2.23139784513791
  C   -7.97352785244339     -1.09735774725951     -1.45848135054709
  H   -8.48225061459857     -2.69858545972772     -0.12467865251914
  H   -8.73704274346905     -3.07167609063423     -1.83271158981800
  H   -8.95018151856056     -0.61750429407434     -1.42125079433916
  H   -7.53505418001723     -0.95093463485267     -2.44423184434487
  H   -6.79605993144980      0.58050725868339     -0.74783244617956
  H   -7.56196080616221     -0.34674653053866      0.60142907360523
  C   -4.15387131065065     -3.03072909573757     -0.79602382990530
  H   -3.38538105234217     -2.29439903237530     -0.58625069006882
  H   -3.98535429472935     -3.45090038549068     -1.78514105781690
  H   -4.09108045382472     -3.83380144536132     -0.06342189069368
  O   -4.87839725082776      1.64295239856236      0.54403473447907
  S   -5.19421283307473      2.55158646321056     -0.56108090111688
  O   -6.34392893691647      2.04685759322080     -1.32366922256748
  O   -4.03690724811141      2.82043929476454     -1.39981921639769
  C   -5.72697799957820      4.12666592632972      0.11159302112675
  H   -6.45962879063592      3.93681570440436      0.88160746358886
  H   -6.16348627710967      4.66178574059670     -0.72000474098497
  H   -4.87604919890169      4.65745173069976      0.51139767719121
  Cl  1.57292422121488      1.68287167113416      0.07236332940610
  C   1.29615240082000      1.55796205486704      1.81984592106941
  Cl  0.08079527314851      0.32989719361635      2.18126312617371
  H   0.92849605619854      2.51930816848736      2.17887254452941
  H   2.22617318752963      1.26273743507376      2.30327390879425
  Cl  -5.00637592011422      0.55363266127716     -3.12365979331869
  C   -4.26793528533850     -0.73664832922163     -4.15055964679400
  Cl  -5.28508538994354     -2.16226687536885     -4.21355513862589
  H   -3.31118577475490     -1.03241936669364     -3.72027295700949
  H   -4.15728725257737     -0.36415267717864     -5.16770959006328
  Cl  -1.19505013430203     -1.76651484012431     -2.35568051793667
  C   -1.00960881648133     -0.38584992871308     -1.28193448325823
  Cl  -2.60490257724296      0.34623086208796     -0.85662340230462
  H   -0.41458825045828      0.36582495506082     -1.79926968582783
  H   -0.52488967517537     -0.72849035585973     -0.36935650404998
  Cl  -0.43489237073336      3.03263028697168     -2.29312486489015
  C   -1.79279030026082      2.82472635412959     -3.40379795744087
  Cl  -1.55705765503191      1.39857169732552     -4.41748919264287
  H   -1.83762718642545      3.69947586235502     -4.05094422242655
  H   -2.70330196178087      2.70077771972532     -2.81193572528704
  Cl  -3.17107647065285      7.15500505364556      0.75346872800014
  C   -2.35842454355965      6.86103621210465     -0.78862131120204
  Cl  -3.07331243384518      5.44554795223118     -1.61718120865118
  H   -1.31006533880851      6.64846111116689     -0.58542903162237
  H   -2.48910900708009      7.73897706840674     -1.41779505747148
  Cl  -6.01395644434682     -3.83370047806058      4.81915926064257
  C   -7.33823407148298     -3.27005329181401      3.78764278235950
  Cl  -7.15070129196345     -3.86999823436471      2.14739078013543
  H   -7.31818741293846     -2.18122816314617      3.74982385410347
  H   -8.27719174488156     -3.65455199228130      4.18331819104386
  Cl  -7.44767426663842      0.34268257726956      3.21490235485708
  C   -6.33547018383989      1.70215845602603      3.19478087668094
  Cl  -7.21310796265157      3.22071831652370      3.44983982203690
  H   -5.84222662614123      1.73013715539436      2.21591098253614
  H   -5.62767110496221      1.57437016451001      4.01312906265874
  Cl  -10.34940963156228      0.21279082256773      1.16055203384379
  C   -9.97953298459887      1.93107619620158      1.30485210605991
  Cl  -8.63007466278997      2.38622464790727      0.21472069607539
  H   -9.68063186713788      2.12743144853519      2.33331485476897
  H   -10.86698710017900      2.49339684507188      1.02123819703145
  Cl  -3.16048487518313      0.34613304277159      3.94295845655853
  C   -3.46864857739375     -0.38510923634256      2.36125202625633
  Cl  -4.62363735228040     -1.70339866475701      2.49877032453114
  H   -2.52861980727709     -0.79241457406176      1.99092847428490
  H   -3.89336440259686      0.36868534398234      1.69381086568992
  Cl  -0.84042773348136      4.22300306616191      0.96392015485316
  C   -2.18014588558994      3.08142448284967      1.03037120890492
  Cl  -3.27722534786483      3.48412847735544      2.34943602731093
  H   -1.77165450964623      2.09008913519262      1.22168468273543
  H   -2.73231122895294      3.12011483041617      0.08784121541118
