76
Coordinates from ORCA-job surface_scan
  C   -7.08944634756258     -0.42987349530302     -0.38617645028152
  C   -5.98049306987927     -1.25406483009104     -0.36724101993233
  C   -5.48656540676641     -2.37680205596633     -0.71379475441059
  C   -6.69065172404785     -3.26110235422288     -1.16837421334930
  C   -8.05522354852417     -2.58575872219289     -1.11631288639068
  H   -6.68434671745322     -4.15657908873629     -0.54802457004681
  H   -6.42923072989697     -3.51334201398233     -2.19866259525038
  C   -7.97863029665785     -1.10290060903692     -1.47259821698891
  H   -8.47823783072399     -2.68837994877414     -0.11616498246236
  H   -8.71959792042250     -3.09113108596158     -1.81902831975218
  H   -8.96055209635902     -0.63307938348625     -1.44817160574736
  H   -7.53596868083689     -0.96730818466165     -2.45803129330432
  H   -6.81979951477101      0.59745872056014     -0.77777953548354
  H   -7.58591671691629     -0.31968944240606      0.57789270832736
  C   -4.14212505168549     -2.98582238253988     -0.76955989042280
  H   -3.38084403223000     -2.23799151413746     -0.57456488882258
  H   -3.97033543797801     -3.42238990192796     -1.75099122739718
  H   -4.07016434067484     -3.77528004477907     -0.02306123784907
  O   -4.89128935383431      1.62032376284875      0.52243628267270
  S   -5.20005901381096      2.54395013620275     -0.57302697417678
  O   -6.35074761277829      2.05464950073013     -1.34472646199657
  O   -4.04001415419185      2.81665088766922     -1.40669472046506
  C   -5.72837585397830      4.11488405254379      0.11353660017707
  H   -6.45209102352898      3.92038094981097      0.89079280158856
  H   -6.17528865261444      4.65258848619825     -0.71085355779653
  H   -4.87449524822567      4.64654685758868      0.50577847450667
  Cl  1.55857782243292      1.70066628027620      0.06905357624376
  C   1.28833747859995      1.54994586510666      1.81558209513722
  Cl  0.07820572382716      0.31319087083179      2.16443347090161
  H   0.91890444287311      2.50501635641211      2.18923121149636
  H   2.22118794782744      1.25145010590886      2.29148166248241
  Cl  -4.99537322764184      0.54633569370035     -3.12327740627108
  C   -4.25870094752548     -0.74646342878712     -4.14828073117034
  Cl  -5.27344348679559     -2.17450222526599     -4.20097326490853
  H   -3.29944117166557     -1.03873791926881     -3.72122526659385
  H   -4.15335265357592     -0.37762467998733     -5.16732655761163
  Cl  -1.18329612990541     -1.76858988928097     -2.36079944048085
  C   -0.98686755932272     -0.37672549864233     -1.30337645575319
  Cl  -2.57758130753661      0.36113731563752     -0.87164744769150
  H   -0.39575915913406      0.36885629951277     -1.83369899495667
  H   -0.49458490196980     -0.71048845815873     -0.39157291239675
  Cl  -0.43695877730898      3.04900124362849     -2.30343046763249
  C   -1.79614476111971      2.83737144562533     -3.41186105680474
  Cl  -1.55790606092716      1.41313264678507     -4.42763055654311
  H   -1.84544575770132      3.71252958464577     -4.05810796489425
  H   -2.70502446286530      2.70935007513356     -2.81836645606858
  Cl  -3.17007416056298      7.14531075690410      0.76367967492868
  C   -2.35659788506871      6.85376310001767     -0.77841235398806
  Cl  -3.07441775192472      5.44278483277083     -1.61201258421485
  H   -1.30904868548723      6.63764962092436     -0.57473182252034
  H   -2.48405502348357      7.73402883171200     -1.40500040572460
  Cl  -6.03275968823136     -3.84563675538481      4.83683374136582
  C   -7.35664678690502     -3.27466308345376      3.80902565266631
  Cl  -7.18367530606481     -3.88402907693994      2.17073905695291
  H   -7.32674585585593     -2.18625251394443      3.76511254607707
  H   -8.29735712289107     -3.64776364829387      4.21148630308217
  Cl  -7.44319937995071      0.33081858076434      3.19883539323716
  C   -6.32245314519959      1.68341847437390      3.19089854009565
  Cl  -7.19170824111816      3.20560202363292      3.45391775120826
  H   -5.82712654519829      1.71512154582671      2.21323891509824
  H   -5.61725733790802      1.54592361959703      4.00989305579890
  Cl  -10.35968112971278      0.23548313540229      1.14612647875635
  C   -9.97925917929010      1.95068448459859      1.30192405203488
  Cl  -8.63853457632298      2.40852987371373      0.20290199483841
  H   -9.66920893345266      2.13607216483290      2.32916715961116
  H   -10.86658612480900      2.52015301141555      1.03250921921740
  Cl  -3.12041143704073      0.33520748517743      3.89943775852828
  C   -3.47396341513189     -0.41587532120553      2.33603663751411
  Cl  -4.62657874528429     -1.72997712332399      2.52489694142935
  H   -2.54537832514539     -0.82953483556019      1.94463934621947
  H   -3.91473676861635      0.33227364379956      1.67252135795188
  Cl  -0.85804394166116      4.21244863631493      0.98141462103956
  C   -2.19753372859228      3.07010430742878      1.04280517080421
  Cl  -3.30014115257694      3.47344040070048      2.35722624545369
  H   -1.78956573180570      2.07913382777688      1.23697242684514
  H   -2.74672656892293      3.10866002066137      0.09862262426351
