26
Coordinates from ORCA-job surface_scan
  C   -5.86280644093609     -0.18060093864840      0.82801599073251
  C   -4.39080868187516      0.12695057372263      0.64169407776375
  C   -3.50974681474881     -0.77587687663756      0.20397064864942
  C   -3.90696531444135     -2.18901083200973     -0.12923392618896
  C   -5.28507756479444     -2.56100047095321      0.40786950813023
  H   -3.15292138709611     -2.87439301106439      0.26574543805432
  H   -3.89578171067869     -2.29470837723734     -1.21914641274017
  C   -6.27332698275617     -1.44773744332723      0.08590547705305
  H   -5.23352283940172     -2.69549250242244      1.48997239445577
  H   -5.61204273746009     -3.50323815980588     -0.03556071682985
  H   -7.28589760833487     -1.73505077027446      0.37526412538597
  H   -6.26473402147185     -1.25801001190899     -0.98913319761902
  H   -6.44373865336565      0.67501448017587      0.47514220936883
  H   -6.06587662398464     -0.29130585776107      1.89842722756333
  C   -2.06193115685006     -0.44722769682632     -0.00832151040418
  H   -1.84292413713804      0.58202212309978      0.26521745514670
  H   -1.80107006022531     -0.58320583863776     -1.05795392904456
  H   -1.43350914315498     -1.11306492075811      0.58421285208444
  O   -4.05185640848186      1.35714518099424      0.95646307397737
  S   -3.64098989157886      2.42193498867543     -0.19226742096222
  O   -3.76242890137304      1.80804219137673     -1.48346012282762
  O   -2.37439311260853      2.99922034569071      0.15868009508086
  C   -4.92137986919026      3.66697570832126      0.03082160727137
  H   -5.85006510466508      3.26278334168056     -0.34692318913915
  H   -4.62416744581110      4.54419128559418     -0.52848523983198
  H   -4.97483738757722      3.88235348894151      1.08892348486980
