50
Coordinates from ORCA-job surface_scan
  C   -7.26699872865706     -0.44142601171354     -0.17375883570141
  C   -5.98668180925653     -0.96447623812272     -0.72005340533719
  C   -4.79585984434827     -0.92518015112512     -0.14715675208036
  C   -4.63940796146476     -0.30258155705413      1.21605314645827
  C   -5.81869744460132      0.60336794830704      1.55669083986422
  H   -3.71187593679705      0.27456706195181      1.23170113961548
  H   -4.54556949096474     -1.09484687934750      1.96922639898660
  C   -7.12733179363556     -0.14134487629505      1.31642598051194
  H   -5.78713190342053      1.48275685748149      0.91253651012076
  H   -5.74885897837991      0.93093174451197      2.59767691665330
  H   -7.97608067039174      0.45585010534995      1.65662276530152
  H   -7.12179112716074     -1.07547813060129      1.88464934860432
  H   -8.06128880477520     -1.16550585958918     -0.36547692079830
  H   -7.51965740318070      0.47013613406445     -0.72187851161225
  C   -3.55147305942560     -1.44689005935161     -0.79649754097324
  H   -3.81479029774453     -1.97819781743993     -1.70529233950751
  H   -3.01646808542709     -2.11804914298499     -0.12329030899409
  H   -2.89180579072174     -0.61699693427790     -1.05048795861341
  O   -6.12125910758567     -1.56372218023791     -2.13539838404437
  S   -6.76108289173612     -0.34197480415328     -3.19564560433928
  O   -6.95342673962813      1.43384007307885     -4.49661093063361
  O   -8.07156968912068     -0.86574349236858     -3.58054014683671
  C   -5.62003330974231     -0.94554325343339     -4.51054104921698
  H   -4.66776065090980     -0.45907510736461     -4.34591497744449
  H   -6.03376067390088     -0.66416074424016     -5.46864576631974
  H   -5.53788285057934     -2.02039697115733     -4.41342299784962
  C   -6.51830000443532      4.75556466214965     -2.12333014171560
  B   -5.14556179801081      2.39172766055378     -2.50350743119266
  H   -4.82847497557515      1.32159326108986     -2.10451123577492
  B   -7.21066756825649      4.10222340597122     -3.53615310278730
  H   -8.36508593602004      4.29983579660653     -3.74201979586736
  B   -4.89616364181935      5.24019893107108     -2.30953465511854
  H   -4.53071837350603      6.19733880058734     -1.70861258084521
  B   -6.74449549815829      3.07384950128629     -2.16999224015911
  H   -7.60571980870180      2.61008375015158     -1.49434982685131
  B   -6.06662885625673      5.44527529204998     -3.61628931002030
  H   -6.46821442766298      6.53476382705038     -3.86679790269471
  B   -5.90313141645072      4.09134370242156     -4.73551756729539
  H   -6.12685170305392      4.20764881761507     -5.89566273847685
  B   -3.99280086328433      3.74345527945299     -2.59236201837355
  H   -2.86026978882800      3.63117858028718     -2.25035166911717
  B   -4.46000477197736      4.79134009418087     -3.96347413152719
  H   -3.65669700257935      5.41131954525714     -4.58173448932635
  B   -5.31398723911857      3.77403174172815     -1.41762748347597
  H   -5.22211539666891      3.77549838785580     -0.23265488181318
  B   -6.32379364497943      2.60474759031414     -3.83333296422860
  B   -4.62046619974721      3.02152283289929     -4.09476458802506
  H   -3.92417981947798      2.38564422135489     -4.81573440172556
  H   -7.90361192831005      1.51747942127049     -4.54272491269007
  H   -7.15514331293057      5.33973527025482     -1.46471926390880
