50
Coordinates from ORCA-job surface_scan
  C   -7.34930854544709     -0.58120115254091     -0.16700253816808
  C   -6.01177862568743     -0.94826676892537     -0.67564272303479
  C   -4.82893101891836     -0.77675497763898     -0.12521181543787
  C   -4.75136808711840     -0.11331554623809      1.22749523392077
  C   -6.02346310377180      0.67257050469513      1.53250687825583
  H   -3.89036831741869      0.55835003323469      1.23482370733537
  H   -4.58441394700782     -0.87552803237649      1.99788780221999
  C   -7.24923536234641     -0.20816027489564      1.31244905983540
  H   -6.07497878694955      1.52930184222172      0.86007422199244
  H   -5.99693955988009      1.03857637295395      2.56258064196266
  H   -8.15605275989642      0.31334120995234      1.62552193792594
  H   -7.15550861325907     -1.11499887869565      1.91607726480823
  H   -8.04105146499746     -1.41071148409911     -0.32481051641823
  H   -7.71946635578302      0.26243344422378     -0.75515662192757
  C   -3.53747962659510     -1.17169154685038     -0.76634447012759
  H   -3.74372123036294     -1.74114393079378     -1.66662559404482
  H   -2.93552997635203     -1.77044018739976     -0.08181437732829
  H   -2.97282315836722     -0.27877291670495     -1.03338765833611
  O   -6.07552951893208     -1.59568510996216     -2.19975156295487
  S   -6.72216785764219     -0.36083189391730     -3.20049306258073
  O   -6.92957290240997      1.43369274203622     -4.51080494902932
  O   -8.08554329952175     -0.81073010437842     -3.49682879985623
  C   -5.70516402998758     -1.01994099380190     -4.59103200738875
  H   -4.73023432457825     -0.55746299025686     -4.51022851409293
  H   -6.18691291259523     -0.74059354027009     -5.51739322711124
  H   -5.64309890124197     -2.09532859572131     -4.48288057173311
  C   -6.38042583300177      4.64539742869258     -2.01505440591998
  B   -5.00441593563414      2.32940776657717     -2.61057361509993
  H   -4.64645116868303      1.24624570297990     -2.29183755157574
  B   -7.16080455304985      4.05038854604553     -3.40775861767974
  H   -8.32978253105929      4.23733104511194     -3.52173877725744
  B   -4.78278046577644      5.16837217014423     -2.28923558105569
  H   -4.38939173877431      6.10078635346397     -1.66685216238189
  B   -6.58471668854227      2.96384904937939     -2.13154845800981
  H   -7.38784804902631      2.45166900411038     -1.42068445441414
  B   -6.04523675702954      5.41657069940895     -3.49905191115788
  H   -6.47990507730796      6.50970025607036     -3.66535581181516
  B   -5.94149341389305      4.12261166719970     -4.69433673744456
  H   -6.24803515711076      4.29245645651929     -5.82888734529258
  B   -3.88010830857431      3.70427101452272     -2.71016506793414
  H   -2.72439082301653      3.59524936126928     -2.45333646873897
  B   -4.45806749597312      4.80983667676478     -3.99038713983566
  H   -3.70916166955041      5.47440825015526     -4.63072506117657
  B   -5.11523756867051      3.65257524002063     -1.44612899207526
  H   -4.93875425832014      3.59601190585025     -0.27159626928681
  B   -6.27571009805370      2.58396721770834     -3.84166834907398
  B   -4.60154480892546      3.04566558288512     -4.19975586859042
  H   -3.94757654532292      2.45977998882596     -4.99861405300648
  H   -7.88130408923501      1.50936698257140     -4.49868848337417
  H   -6.97784369776655      5.18463449721962     -1.28481527368601
