50
Coordinates from ORCA-job ./surface_scan.006
  C   -6.96970352066152      0.02898198074308      0.09072361415920
  C   -6.11712883068737     -1.03282359818810     -0.50489255429126
  C   -4.82120582605868     -1.22668519736018     -0.29540839003547
  C   -4.06927442586632     -0.30187323200291      0.61891348820479
  C   -4.83145874592773      0.96347563205389      0.97847442609254
  H   -3.11946411679615     -0.03840090712026      0.13898073990464
  H   -3.79684194274337     -0.86052109801678      1.52682168020455
  C   -6.28427177758131      0.65531496143448      1.29700916860686
  H   -4.79439895332469      1.66054796556409      0.13767001891533
  H   -4.34845770341280      1.46109389929679      1.82447053203219
  H   -6.81321425391128      1.56798901103873      1.58324683099701
  H   -6.34087212270583     -0.03540363084996      2.14753538977405
  H   -7.93338087846733     -0.40990526689673      0.36802149642464
  H   -7.18185271311573      0.79974950952091     -0.65858759486423
  C   -4.03883003189269     -2.33571853042242     -0.91354352839558
  H   -4.67462839230590     -3.01694614350255     -1.47500128392502
  H   -3.50981321041969     -2.90441638211840     -0.14049803815477
  H   -3.27390300127045     -1.93281986032367     -1.58660519961813
  O   -6.82623616557966     -2.01268829838500     -1.36766650531100
  S   -7.65187241714621     -1.33917175985975     -2.63346120287521
  O   -6.06590577326406      1.77850971562645     -5.25209986495766
  O   -8.44194125307623     -2.45468981447094     -3.15873107100067
  C   -6.26440516842254     -1.14912215797251     -3.73909985913483
  H   -5.49713000054454     -0.54962103797993     -3.24889439408805
  H   -6.61131178159869     -0.59975295271101     -4.61544180790103
  H   -5.91089654406510     -2.14914167626297     -3.99375316784924
  C   -7.11451373543464      4.55031532150710     -2.51319114925145
  B   -5.37054860039368      2.44924499876004     -2.59139616566493
  H   -5.08607689393036      1.34341559527527     -2.24750407489797
  B   -7.07218128496377      4.15260138799558     -4.15013730968997
  H   -8.04581740614009      4.29099758301083     -4.81922638489877
  B   -5.67869313163539      5.20114008044778     -1.88710429437426
  H   -5.74195752275051      6.04236225482067     -1.04809308296726
  B   -7.05021176625425      2.90048921907650     -2.90146158993475
  H   -8.01170232094606      2.21882070740089     -2.73524847145797
  B   -6.21818313313919      5.56917375224796     -3.52690069968870
  H   -6.63728967282595      6.65497977662480     -3.77535996181819
  B   -5.40568929025934      4.46520182242240     -4.63603465249101
  H   -5.14998763042683      4.77996478184906     -5.76020274341119
  B   -4.52015260285535      3.87234101411469     -1.96478930965683
  H   -3.63506933239759      3.78018260169147     -1.16935503431238
  B   -4.53549540593557      5.12002567366237     -3.23439874718478
  H   -3.65954319797636      5.92211165152943     -3.34403712505400
  B   -6.19189779912940      3.55588985500969     -1.49949744194081
  H   -6.59690787302454      3.31627625342073     -0.40541679320689
  B   -5.91994346614371      2.79307223774031     -4.26418890541144
  B   -4.35156729087103      3.41083665540765     -3.67004779279931
  H   -3.33107242302715      2.97516473963827     -4.11609621128439
  H   -5.43276973384014      1.92673676822480     -5.95463324826768
  H   -8.04595795421698      4.92995422463435     -2.11865045044527
