76
Coordinates from ORCA-job surface_scan
  C   -6.34983682401203     -0.45908173372605     -0.76609298177878
  C   -5.26238310654834     -1.24071469123118     -0.44737829789757
  C   -4.77280351325492     -2.42060873293831     -0.51232968499774
  C   -5.98540584328365     -3.38359270696090     -0.66130649818879
  C   -7.33019170414546     -2.70260225060823     -0.92719542532922
  H   -6.04337268147084     -3.99987561218574      0.23574095928360
  H   -5.70279745239869     -4.00448478229705     -1.51412473546799
  C   -7.18906377884453     -1.37629456872652     -1.68529748225939
  H   -7.82964883082901     -2.50423791436296      0.02195702266695
  H   -7.95552882893241     -3.38420466109079     -1.50536585224299
  H   -8.16070530707129     -0.91840397077751     -1.86329825864198
  H   -6.68620854669506     -1.53741547666356     -2.63680539983016
  H   -5.91973891536527      0.44346808452625     -1.36096699352641
  H   -6.89952787195011     -0.04994904144787      0.07989803999713
  C   -3.41269483697746     -3.00128977673914     -0.47057827187232
  H   -2.66476501486822     -2.21616305893521     -0.52801210268402
  H   -3.27718004082023     -3.68500560652939     -1.30615043122683
  H   -3.27683131762665     -3.56195243299490      0.45319387328477
  O   -4.19259496513195      1.35348336317705      0.33922914885174
  S   -4.58067545206461      2.31857085701532     -0.68242849197088
  O   -5.10660016006290      1.62264031928158     -1.89267452757451
  O   -3.52965414452243      3.24349519477076     -1.05334672952964
  C   -5.98028325184847      3.24951659773729     -0.06596487784096
  H   -6.81523452534214      2.56671528609923     -0.01572632588999
  H   -6.16631220182673      4.04474441239010     -0.77321544825067
  H   -5.73521411224015      3.64137556444261      0.91026271380341
  Cl  1.13043025093071      1.85882959784325     -0.16157753847389
  C   1.38179362562874      0.23426515989478      0.51971256231966
  Cl  0.11668248906998     -0.16474201428494      1.68145436007986
  H   2.33672534151039      0.22278784717771      1.04283089464833
  H   1.34333479637026     -0.49873052418104     -0.28497509925078
  Cl  -4.31202315632938     -0.54176087746695     -3.58167798054959
  C   -3.60267709354769     -2.02499612808521     -4.29369509450375
  Cl  -4.61928291266585     -3.42785188445949     -3.98561598216073
  H   -2.63258780063432     -2.21145698743718     -3.83372421744571
  H   -3.52724527562249     -1.89648309550778     -5.37241894537351
  Cl  -0.39024350549352     -1.55169372519702     -2.37715175464993
  C   -0.90778720239346      0.12719119222615     -2.52251280177942
  Cl  -2.13523003769165      0.55535910450945     -1.27336192181202
  H   -1.34863453646104      0.25384291468660     -3.51135266758326
  H   -0.03356970112226      0.76315566086800     -2.38941081613315
  Cl  -1.34155930073588      3.45793588577610     -3.18381312261712
  C   -2.87239052922695      3.02771943339587     -3.93875639169727
  Cl  -2.62458889910614      1.86796565095343     -5.24191859570649
  H   -3.30733907690298      3.92869531643250     -4.36980276952740
  H   -3.52420760974571      2.58784846278057     -3.18101245627934
  Cl  -6.27616317502575      6.44924306209038      1.66480025128336
  C   -4.52118755239111      6.61852232027827      1.57280386196126
  Cl  -3.88201939687117      5.86613574842199      0.08409392107984
  H   -4.09010871549564      6.10449231690877      2.43142110947375
  H   -4.28383256816724      7.68045674901122      1.56282121157527
  Cl  -9.22981723382553     -0.02767314486608      4.21089420554825
  C   -9.31749669109251     -1.16275966479362      2.85833934839375
  Cl  -7.85607163758658     -2.16284239751938      2.76986727825900
  H   -9.39823376167524     -0.58382462972220      1.93841404259515
  H   -10.17336693509579     -1.81626342237470      3.01867522173312
  Cl  -6.45893180850775      0.95265925804861      2.46894962443568
  C   -6.03600905476638      1.82335165217391      3.93303205110548
  Cl  -6.52032907169626      3.52723315867924      3.81109091103056
  H   -4.95334633561178      1.78433471926584      4.05294437249136
  H   -6.56861354247871      1.36927510348295      4.76789140118584
  Cl  -9.35682946078267      1.57410834947881      0.51834616193819
  C   -9.41929428847869      2.85813114385432      1.72218014881632
  Cl  -9.13433917644632      4.44244693554473      0.97205144229540
  H   -8.63447775991038      2.67165914233029      2.45496011024059
  H   -10.41231474302636      2.84880797330045      2.16857787975944
  Cl  -2.79660086370479      0.18277590259039      3.86594607609921
  C   -3.27982910024067     -0.67250672306315      2.39408488225519
  Cl  -4.48826746442316     -1.90414080772811      2.76241687077321
  H   -2.39714603887584     -1.16880626969110      1.99368746988644
  H   -3.70784900936185      0.04674167380208      1.68943402453746
  Cl  -0.62488677280816      4.09233547920005      1.93432065550901
  C   -1.95917193774841      3.03749469063890      1.45104488725192
  Cl  -3.39167942279454      3.37539045148859      2.38840912425871
  H   -1.67423315967708      2.00296548781414      1.63860195407513
  H   -2.20652995913017      3.21791209020463      0.40216689776088
