100
Coordinates from ORCA-job ./surface_scan.008
  C   -2.69041199157901     -1.02215631351058     -0.83928172637287
  C   -3.11349128674130     -0.26035583992143      0.35939697658816
  C   -3.48483386403874     -0.72019934904236      1.54024775455338
  C   -3.56192604454577     -2.20984521072361      1.75728275486542
  C   -3.57078485608387     -2.97658768790971      0.43862792566862
  H   -4.46760441255393     -2.43116459403890      2.32693264518112
  H   -2.70756860669931     -2.52406119799846      2.36629457413534
  C   -2.43950115079358     -2.48093080047753     -0.45547561376051
  H   -4.52476601059523     -2.81560545306658     -0.06597948302718
  H   -3.46483702470237     -4.04625332465014      0.63164188729100
  H   -2.36837098176784     -3.09021099557877     -1.35768841329804
  H   -1.49386403845499     -2.56164512093193      0.08476037095163
  H   -1.79020266117417     -0.56627257073664     -1.25458334081308
  H   -3.46944004247677     -0.96353517894679     -1.60511784094101
  C   -3.84348355202871      0.13907725500630      2.71203601560507
  H   -3.64248145844570      1.18193482275765      2.48751781877308
  H   -3.25725835340163     -0.15679110455636      3.58164496948010
  H   -4.89601696448675      0.01801470320081      2.96669048257704
  O   -3.11611565265247      1.32819350066791      0.16833668716872
  S   -2.99002910913971      1.83401753455971     -1.44726598921991
  O   -3.43803573753055      2.70333490908640     -3.46408339519714
  O   -1.54713126743635      1.81445702658245     -1.74234554446641
  C   -3.31552925706046      3.54689423488467     -0.86032303217240
  H   -4.35955064694367      3.76818725745450     -1.03759863001566
  H   -2.68493848055164      4.22454530607166     -1.41843985196986
  H   -3.08499317980336      3.59444832100210      0.19614555958222
  C   -5.97317213243674      0.65542639872546     -5.96132557917000
  B   -5.54603719939693      0.75477022025069     -3.24253516779676
  H   -5.16341495674384      0.23878588368019     -2.24705261381062
  B   -4.95579498189862      2.00507819548011     -5.76956565274096
  H   -4.17446468828126      2.25899623600588     -6.61882790229642
  B   -7.52951824233147      0.85793916852910     -5.30050082811404
  H   -8.44515909098704      0.34754227616956     -5.85098600721382
  B   -4.73709485593002      0.53167267074442     -4.79854894399819
  H   -3.81158992346670     -0.17005907919085     -5.02016566135217
  B   -6.68638199410237      2.19872234384315     -6.07568706435439
  H   -7.05287748990497      2.57509026655017     -7.13678162948487
  B   -5.90390904105446      3.16732021793829     -4.82586449626840
  H   -5.75630164409002      4.33778021735592     -4.94277235986907
  B   -7.27763580644347      0.97417347861796     -3.55382055161367
  H   -8.10223045427691      0.61333174018497     -2.77656858668789
  B   -7.49859808470894      2.44891399819085     -4.52226189107479
  H   -8.47576432597808      3.12142412664021     -4.42136930899739
  B   -6.33315348230381     -0.17245458284292     -4.51721594920691
  H   -6.46381386339608     -1.34856506242841     -4.55663136922458
  B   -4.68479974534224      2.12526153550403     -4.02399119528639
  B   -6.24935158464240      2.39643232128464     -3.25239890680433
  H   -6.35567781423189      3.03636089325884     -2.25387899173237
  H   -2.67345220895638      2.43316880798674     -3.97129084823106
  H   -5.88142442092636      0.07523514726387     -6.87179832978555
  Cl  -3.65387803977569      6.47329788285759     -5.43618121888020
  C   -3.30443567938601      5.84543808107261     -3.82116420107360
  Cl  -4.30095976981035      6.65325988621075     -2.60495058795747
  H   -2.26112394667176      6.05784389672452     -3.59139662433652
  H   -3.53468983647534      4.77610442057746     -3.79804427646494
  Cl  -11.24814545406932      3.38746921727477     -1.44495196102000
  C   -9.64339633393673      2.76019526848965     -1.03806023747524
  Cl  -9.77363314067005      1.15356234259420     -0.32210667704721
  H   -9.18570756830438      3.42570454731744     -0.30649567266277
  H   -9.05337802579477      2.68128917048485     -1.95276867007179
  Cl  -8.58629520067886     -3.72118992713556     -1.49277385218207
  C   -8.69866995083863     -2.02589091688179     -1.97996118772696
  Cl  -10.32432782936958     -1.63624494669312     -2.54886981962669
  H   -7.99608866696414     -1.84639392249026     -2.79349493278556
  H   -8.47805198625193     -1.40692550135716     -1.11092101877459
  Cl  -7.71197357627593      7.01488142279210     -5.83947827210487
  C   -8.54937008912414      5.52945449690967     -6.30262559754287
  Cl  -9.10886170392258      5.61704445794200     -7.97655963516872
  H   -9.41970784721056      5.40817583186048     -5.65865330431100
  H   -7.85086598605168      4.69605055158756     -6.21199688649616
  Cl  -7.26483151180449      5.51036147513786     -0.83287842083432
  C   -7.58599863608129      5.83940465202156     -2.53840393032340
  Cl  -9.32463990562995      5.84988555838669     -2.85459769486577
  H   -7.13161366458386      5.04387953040119     -3.13208341874718
  H   -7.18484556653187      6.82235619834824     -2.77977865238562
  Cl  -11.65062292501065      0.10282485047906     -5.41859648808018
  C   -11.13624702267552      1.39241264039795     -4.32557506026411
  Cl  -11.40440683933894      2.98075226069049     -5.05454686238577
  H   -10.06692335261943      1.27820947152034     -4.14044348800337
  H   -11.73078617634845      1.32833221548029     -3.41548479129935
  Cl  0.00311780291799      5.35864949067017     -2.31958056440247
  C   0.14749695066807      3.76734473576089     -3.07784903263034
  Cl  -0.44403205533179      3.81605863112186     -4.74647621815083
  H   -0.45840821372589      3.04102811727889     -2.50950265910329
  H   1.20345820530780      3.50350023300962     -3.10097792396014
  Cl  -11.72688770186921      1.80352705925159     -8.60605323735014
  C   -10.01199506193813      1.99558494453878     -8.22518159992889
  Cl  -8.99980204250902      1.30261951044655     -9.49438291143009
  H   -9.79761086583821      1.47141935318598     -7.29439937746120
  H   -9.79335772637687      3.06054951544977     -8.15386716444688
  Cl  -10.48216321435874     -0.13770135951089      3.98669951757640
  C   -9.00928407318771     -0.18624040180508      3.00989003030034
  Cl  -7.65826786692643     -0.84025592730868      3.93592366843370
  H   -8.75876281723043      0.82967615839932      2.70619746231572
  H   -9.18253064175072     -0.83309796945694      2.15143352524274
  Cl  -7.05114464152025      2.37509860828749      1.44338530893369
  C   -6.25201725252765      1.28175132272045      0.30889202479728
  Cl  -6.71582584541025     -0.39049408420695      0.59652318715811
  H   -5.17316649549384      1.36686703757510      0.45535600245416
  H   -6.55773554713686      1.54435236273798     -0.70387032335608
