100
Coordinates from ORCA-job ./surface_scan.006
  C   -2.67486815812381     -1.02980463437117     -0.84080900606252
  C   -3.09370652041324     -0.22330666049850      0.34270838796553
  C   -3.46011872168088     -0.69781998704129      1.52650364991469
  C   -3.52882138340950     -2.18267485833174      1.76585018259229
  C   -3.53934694966149     -2.97082781532772      0.46063576780090
  H   -4.43085838805393     -2.40064742417345      2.34324435073439
  H   -2.67121414321482     -2.48698495168260      2.37624028075790
  C   -2.41211215131354     -2.47929314941788     -0.43955944211687
  H   -4.49488238396708     -2.82200108007460     -0.04492409421741
  H   -3.42743088289775     -4.03712340514838      0.66893663408031
  H   -2.33522046391056     -3.09990199188797     -1.33393709758150
  H   -1.46618409010458     -2.54596698989251      0.10225036079189
  H   -1.78077275915929     -0.57828875133537     -1.27466885906731
  H   -3.46172899414435     -0.98960051297293     -1.60041190484645
  C   -3.82135598015194      0.16834470319491      2.69594130882949
  H   -3.63028625500190      1.21254156981551      2.46747924986991
  H   -3.22887870043858     -0.11613990297121      3.56550315893318
  H   -4.87188879966901      0.04186398085517      2.95783179948003
  O   -3.09822460426163      1.24888169705766      0.14273837643169
  S   -2.97991203556121      1.79727705732266     -1.48326582171189
  O   -3.43596452565876      2.68968377838014     -3.46337328419479
  O   -1.53807420727269      1.79779973701077     -1.77203577401129
  C   -3.31962575059401      3.49221087694343     -0.85904820550048
  H   -4.36456779175058      3.71093890256799     -1.03317078525049
  H   -2.69300500549552      4.18702842907063     -1.40035163306570
  H   -3.09052324246200      3.51723527008969      0.19805224281664
  C   -5.97697923500359      0.65266265545429     -5.96391913771524
  B   -5.55076653416500      0.74733451900234     -3.24451421372246
  H   -5.16857775720629      0.22983803562363     -2.24969983398340
  B   -4.95633917721739      1.99952044722023     -5.76971916893835
  H   -4.17332372274013      2.25306891431151     -6.61739780982193
  B   -7.53288446029327      0.85827899804770     -5.30362732345960
  H   -8.44934728945235      0.35136901441626     -5.85548124737082
  B   -4.74217771163361      0.52345197460844     -4.80092030101346
  H   -3.81772584435534     -0.17916792925684     -5.02276270802803
  B   -6.68594331355099      2.19837370620260     -6.07640948939351
  H   -7.05092306526618      2.57708994976773     -7.13696321986913
  B   -5.90220309468588      3.16323419998732     -4.82441179429410
  H   -5.75079473797775      4.33320972006519     -4.93905160611971
  B   -7.28196606860058      0.97113630177793     -3.55628053739552
  H   -8.10783905000131      0.61144719917510     -2.78034254012018
  B   -7.49894091802445      2.44799792461996     -4.52307837898063
  H   -8.47442292567478      3.12246225310612     -4.42213850425563
  B   -6.33986389994311     -0.17657268475428     -4.52092278355480
  H   -6.47397307424421     -1.35189700897915     -4.56223883845665
  B   -4.68789903653530      2.11573738760979     -4.02493778704119
  B   -6.25100948827428      2.39057197382902     -3.25239856863181
  H   -6.35633294382678      3.02941930429245     -2.25325775891183
  H   -2.67543301375776      2.43586232898451     -3.98557541409455
  H   -5.88648335488467      0.07374108130726     -6.87524517734137
  Cl  -3.67591657421953      6.49707294067287     -5.38886931391930
  C   -3.31463329935756      5.84915590094690     -3.78431144349293
  Cl  -4.30465066595110      6.63882526642752     -2.55076215701852
  H   -2.27006109618671      6.05981842599148     -3.55879845073931
  H   -3.54295236128596      4.77957390644890     -3.77324573801999
  Cl  -11.25599385011617      3.38841115439158     -1.45106156524187
  C   -9.65262531274634      2.75953874861588     -1.04146361857264
  Cl  -9.78519330375999      1.15173627326946     -0.32795966390785
  H   -9.19602862879072      3.42366598553946     -0.30799444081540
  H   -9.06070012465265      2.68168119225264     -1.95500069088716
  Cl  -8.61852166161029     -3.72587589191897     -1.50606950057502
  C   -8.71910052232451     -2.02824352705029     -1.98779410890880
  Cl  -10.34104701894743     -1.62646314102064     -2.55880536632638
  H   -8.01395766979163     -1.85042033480739     -2.79942470546321
  H   -8.49641503054749     -1.41327181128283     -1.11644424390878
  Cl  -7.70001343986212      7.01710505994340     -5.83220234811917
  C   -8.54078354710902      5.53512164747357     -6.30034819116219
  Cl  -9.09654238936308      5.62779194229912     -7.97528000044621
  H   -9.41270248921515      5.41492279041579     -5.65832670456509
  H   -7.84478914945464      4.69963986364891     -6.21006098436346
  Cl  -7.27358699893399      5.50151349796787     -0.82588613735425
  C   -7.58921344315946      5.83625596707977     -2.53161722172881
  Cl  -9.32677212032098      5.84740633266456     -2.85393409485697
  H   -7.13284291445590      5.04281939315295     -3.12641862026467
  H   -7.18768662932536      6.82019106644412     -2.76819222059272
  Cl  -11.65617108000986      0.11550335030416     -5.43304389626158
  C   -11.14093870919282      1.40058945841433     -4.33515369873971
  Cl  -11.40143608533182      2.99165265796973     -5.06099257815469
  H   -10.07262170339755      1.28237276875694     -4.14703305169886
  H   -11.73843957255276      1.33629516729528     -3.42702877231185
  Cl  0.00759594887520      5.35735183559041     -2.31853967252789
  C   0.14721227422136      3.77427255153791     -3.09488980054694
  Cl  -0.46724496653150      3.83702986880130     -4.75475653659419
  H   -0.44909629799369      3.04131112406928     -2.52636935768298
  H   1.20350350592844      3.51386030730430     -3.13478253261156
  Cl  -11.72325644852751      1.82047209201783     -8.62015762020211
  C   -10.00954972988086      2.00819462618773     -8.23187213389355
  Cl  -8.99345185820721      1.31454152130757     -9.49764252543747
  H   -9.80030163380719      1.48236417788463     -7.30088898288909
  H   -9.78874482220886      3.07255060412702     -8.15828103463087
  Cl  -10.51726362904654     -0.11994764900883      3.98343829149858
  C   -9.04089495195464     -0.17037504921287      3.01216814110872
  Cl  -7.68150241984138     -0.77723247254144      3.95874444449696
  H   -8.80646146866265      0.84112299361109      2.68230024022513
  H   -9.20151444724184     -0.84257761563963      2.17091081985056
  Cl  -7.06095195434774      2.36989631745590      1.44114752848848
  C   -6.26438497902574      1.26971550485682      0.31131846582917
  Cl  -6.73444545243092     -0.40037246905721      0.60290481106327
  H   -5.18663223095564      1.35175311380616      0.46010926562412
  H   -6.56673444066487      1.53170841106917     -0.70255398346354
