76
Coordinates from ORCA-job ./surface_scan.015
  C   -6.93345584902047     -0.84204631754083     -0.48105952907389
  C   -5.50064695779878     -0.98505357622813     -0.40427771168790
  C   -4.57089657807567     -1.86955602513389     -0.57897180208228
  C   -5.14994630662842     -3.23479927197673     -0.92496843928784
  C   -6.64169672107152     -3.34896067469798     -0.64470365098020
  H   -4.59418612557315     -3.97501642299594     -0.34107930381892
  H   -4.92178721333626     -3.42356382908577     -1.98006242779511
  C   -7.40944607583901     -2.14436187129115     -1.16508361985384
  H   -6.79920546219941     -3.43770914230056      0.43513670583760
  H   -7.02761156982742     -4.26462355525819     -1.09938496451603
  H   -8.48163465841093     -2.25296900341294     -0.98929138457016
  H   -7.25609951776407     -2.04167424167668     -2.24277650119436
  H   -7.19601069246750      0.02264013339148     -1.09383241998993
  H   -7.37152601533057     -0.72161039012754      0.51348633741365
  C   -3.09743759033417     -1.72196645547254     -0.51692822420144
  H   -2.81053340929557     -0.70592576055889     -0.25914908851692
  H   -2.67115042226237     -1.97989063216917     -1.48966434434610
  H   -2.68621557918082     -2.42061512639331      0.21695274665692
  O   -4.76655187319806      0.74772841237514      0.27290071775881
  S   -4.68701097747386      1.85192587118812     -0.77841237759081
  O   -5.22228569279549      1.40510894785691     -2.04287354345313
  O   -3.35255110873084      2.39541452848408     -0.79313514269497
  C   -5.76103858854313      3.09084165923053     -0.13686796949914
  H   -6.76843797211867      2.68112363696971     -0.08847904034068
  H   -5.72049270596425      3.94662185312734     -0.80812475653416
  H   -5.40595424292799      3.36975551308748      0.85267644743072
  Cl  1.26268934397868      1.26549443306679      0.45978769633649
  C   0.53804065408747     -0.33461488122959      0.52219219446438
  Cl  -0.20711105453399     -0.67124889020856      2.09081678024028
  H   1.31488113342033     -1.07449328051504      0.35668116145609
  H   -0.23545660311309     -0.38629073016416     -0.23899781169053
  Cl  -4.36959373560700     -0.96537574969318     -3.93958538941728
  C   -3.28326656110414     -1.86172674859067     -4.99182344211035
  Cl  -2.94232234046410     -3.48772662097798     -4.37924144835656
  H   -2.34156641033776     -1.32377419525532     -5.04566109394496
  H   -3.74773390329149     -1.96080315732785     -5.96743470525231
  Cl  0.07228993654073     -1.19182703783437     -3.44294157292106
  C   0.11576439168304      0.57834318620917     -3.29385716333364
  Cl  -1.18955801100041      1.19853244163925     -2.30668041812636
  H   0.01688295677179      0.99420251587524     -4.29212779511579
  H   1.06507821130340      0.84211724156897     -2.83638870178402
  Cl  -3.15819994685978      4.13435418223204     -4.12865541443899
  C   -3.58820513801080      2.50273500643861     -4.61590282799157
  Cl  -2.41049356707641      1.80573957093091     -5.75247206284310
  H   -4.54463051189354      2.53504699546135     -5.12722055612198
  H   -3.63236808469303      1.87097301259117     -3.73611177787858
  Cl  -5.68229843508251      6.37728795617766      1.84594110846128
  C   -3.94243151139924      6.54408530060999      1.59541451485527
  Cl  -3.42324488079179      5.93568394146468      0.02611596272946
  H   -3.43466010438158      5.96577298715699      2.36135835569783
  H   -3.69389138214920      7.59920361618684      1.65132136154403
  Cl  -10.07081399520834      0.34378092287295      4.35644955113833
  C   -9.96435569380482     -0.54922194115392      2.83752621953069
  Cl  -8.89170285338798     -1.94456766071275      2.92894206210524
  H   -9.58152612338060      0.12953318042376      2.08297504866529
  H   -10.96042548622175     -0.90395541502866      2.59205276609958
  Cl  -6.72042355376461      1.07739667053717      2.94592835227667
  C   -6.51841062629901      1.79643782765751      4.54523767890649
  Cl  -6.60941291791321      3.55723102711341      4.49570327651871
  H   -5.53489950990895      1.51322294730914      4.90611171949844
  H   -7.31577778177479      1.42572214217200      5.18163299022172
  Cl  -9.55545425495164      2.36509149202933      0.50609579413812
  C   -9.10839147256362      3.56733470411135      1.73210414972801
  Cl  -9.18650401311839      5.20847734704270      1.11501680298031
  H   -8.09198819670895      3.35760987274153      2.04678059048742
  H   -9.80533257794081      3.46886336329981      2.55862605187571
  Cl  -3.41682039286041     -0.38554727353759      4.50318494471344
  C   -3.80145652454067     -1.02985768751042      2.90701621675228
  Cl  -4.87382652793019     -2.43179365631230      2.98929477495229
  H   -2.87053518569408     -1.34618224748130      2.45047336860138
  H   -4.28599827968268     -0.25343748738487      2.32280785894880
  Cl  -0.70681650761780      4.32144230216016      2.34677322287746
  C   -1.83244591140245      3.01638128167952      1.97242200373273
  Cl  -3.34987247511495      3.17093712996673      2.87197387116439
  H   -1.37241360911033      2.07629470139139      2.25942133655570
  H   -2.07381006892493      3.04996710140975      0.91440568000290
