76
Coordinates from ORCA-job surface_scan
  C   -6.48185364049950     -0.46703678974678     -0.59235564849414
  C   -5.11219302574516     -0.81440209363455     -0.37777651203522
  C   -4.32525540987419     -1.83333816356951     -0.41916863582752
  C   -5.08064833459351     -3.13428609120904     -0.70283223517730
  C   -6.58715360133950     -2.98428915609276     -0.53378530452077
  H   -4.69309268649332     -3.89307888559297     -0.02223010703727
  H   -4.83800846904981     -3.42447557584820     -1.72789277115270
  C   -7.08812486293704     -1.73706383676618     -1.24963412764900
  H   -6.83211841246815     -2.91740296773562      0.52714665396837
  H   -7.08039512633224     -3.86661463065097     -0.94444043197549
  H   -8.17354508438330     -1.66006260082105     -1.19344853690342
  H   -6.79097931248875     -1.77580467547393     -2.29754595403818
  H   -6.55668922699805      0.37036348230241     -1.28879313607576
  H   -6.99293979150353     -0.22204025545124      0.34114779229082
  C   -2.85163642898536     -1.91570638048476     -0.27000218736508
  H   -2.46127400584714     -0.93472793722695     -0.02210992431637
  H   -2.41048556312288     -2.25429223985821     -1.20669748497984
  H   -2.58716327184867     -2.62841492437997      0.50819029339353
  O   -4.03317425497308      0.98544458595387      0.18023090084766
  S   -4.36997925478322      2.11981748476682     -0.75414938329532
  O   -4.81687855089883      1.62798391020179     -2.04426075978506
  O   -3.25204531953927      3.03187353333499     -0.81686325152413
  C   -5.76086899800155      2.98580069775505     -0.03577065414723
  H   -6.61135817017695      2.32229030917126     -0.06392280729630
  H   -5.92670522897080      3.85901176686268     -0.65114885186464
  H   -5.50638813681145      3.26440372921975      0.97566997071375
  Cl  1.03421300869143      1.27799128684769      0.18758726292827
  C   0.82800754625725     -0.47444145461528      0.39445853844010
  Cl  -0.12362943841782     -0.82682869512713      1.83774390109398
  H   1.80934344160141     -0.92911328841650      0.52107727867149
  H   0.29520304443197     -0.87391605205375     -0.46815628649158
  Cl  -4.36172357265410     -0.55226003241296     -3.53367518677873
  C   -3.83541427744023     -1.88773591541922     -4.61651003225890
  Cl  -4.80266422045808     -3.33832173670001     -4.36168709705476
  H   -2.79832420257962     -2.13572612132542     -4.39407853716450
  H   -3.96605140252154     -1.57451028316956     -5.65085595077590
  Cl  -0.44368058581637     -1.39085430011466     -3.02970783276333
  C   -0.60432600090075      0.35739327205716     -3.16743878840597
  Cl  -1.76633501674869      1.01741734480518     -1.95568788450988
  H   -0.97866560360140      0.57559460145257     -4.16819674484215
  H   0.37835611096929      0.79377885809048     -2.99396923398905
  Cl  -2.23240565782330      4.01705959736837     -3.86505893812658
  C   -3.50937002096126      2.96156927364805     -4.48282592541669
  Cl  -2.85361729028406      1.77430891310106     -5.60763552007450
  H   -4.22836692172839      3.57033570009209     -5.02976937096003
  H   -3.97253514454608      2.43662900405517     -3.64062161187906
  Cl  -6.24498292878539      6.26090468647122      1.57024310864747
  C   -4.50132559819653      6.23341999045082      1.84063217972725
  Cl  -3.64759727775422      5.54921978615779      0.42652953878780
  H   -4.30509552133709      5.59934589402819      2.70464983791947
  H   -4.16731386854283      7.25728135908952      1.99634579421863
  Cl  -9.68352017160950      0.51481734500251      3.87671849951668
  C   -9.78052678562972     -0.84466917634490      2.75269318518716
  Cl  -8.27494455619826     -1.77681370642959      2.74284616894454
  H   -9.94368937194536     -0.44025859994779      1.75437612094367
  H   -10.58892904402239     -1.49720755327198      3.07870929764792
  Cl  -6.50514208052682      1.08512384289036      2.72458777803540
  C   -6.38471803977614      2.04224181634080      4.19343610244493
  Cl  -6.57731706863691      3.76854793326115      3.83518349432696
  H   -5.39290819878438      1.88976894778610      4.61731141497611
  H   -7.18434081198532      1.73721642969641      4.86740665561931
  Cl  -9.27350477155976      1.75179542966234      0.42170198711509
  C   -9.19624632179838      3.24878009503984      1.34393225310683
  Cl  -9.04437450579688      4.64649253494735      0.26275068373751
  H   -8.31805072394023      3.20961956556337      1.98747921874444
  H   -10.11927109814276      3.33948448274644      1.91447553467545
  Cl  -3.61040407943352     -0.06574356548880      4.47494790324220
  C   -3.63443411589716     -0.80783140973831      2.87202995039895
  Cl  -4.85402472362836     -2.08179522484615      2.79581568300811
  H   -2.65722237505133     -1.25764932243952      2.70142212762922
  H   -3.87961386402801     -0.05370334071967      2.12098222403621
  Cl  -0.64558183882285      3.61216018988899      2.48710407312920
  C   -1.89669033196443      2.58775868449815      1.76978503527340
  Cl  -3.43119479096407      2.81955788292663      2.57161890875244
  H   -1.60976922552237      1.54438229769133      1.89664832009721
  H   -2.03895553652293      2.85910043789815      0.72059797471487
