76
Coordinates from ORCA-job surface_scan
  C   -6.31963811520774     -0.48314172977732     -0.70586324856752
  C   -5.15172827713649     -1.16514274625211     -0.40017124394212
  C   -4.54598846599999     -2.28813592426534     -0.43856298021448
  C   -5.65755281944808     -3.36931084160451     -0.58801062694728
  C   -7.07610033329492     -2.83046875294741     -0.76601325018181
  H   -5.60417659178695     -4.01649698143169      0.28741329156633
  H   -5.34807262352436     -3.92358359038126     -1.47692661173017
  C   -7.10859180181379     -1.51617349162363     -1.55038829742295
  H   -7.52894938466679     -2.66626459608788      0.21271363167130
  H   -7.66727758068172     -3.58171497630184     -1.29214991508003
  H   -8.12794902809307     -1.15727161264930     -1.68368466967342
  H   -6.64223138828756     -1.64875490368753     -2.52499556177613
  H   -5.99896424506166      0.40493843390353     -1.33952815186280
  H   -6.86987994864083     -0.11286966898547      0.15856882710197
  C   -3.13988358743567     -2.74271154464000     -0.38214233944683
  H   -2.46980277249419     -1.88985881397451     -0.34175315142794
  H   -2.91095453050694     -3.33245962425613     -1.26804360310018
  H   -2.98444161116090     -3.36889929883816      0.49467749941347
  O   -4.11930180383305      1.27792268459994      0.29896535773286
  S   -4.53239067922816      2.27968363202182     -0.68651420229890
  O   -5.08028170692603      1.63673827301725     -1.90525781167202
  O   -3.48748724250040      3.22542913047584     -1.02394682548773
  C   -5.91942118297105      3.18716415137193     -0.00657743786579
  H   -6.74881546353352      2.49871068742087      0.05342160810828
  H   -6.12991937757859      3.99254870242944     -0.69557762478840
  H   -5.65016345171277      3.56566029392665      0.96817312469913
  Cl  1.23865612368417      1.50624506408326     -0.07841796082113
  C   1.27852381261036     -0.21351801670823      0.37297572167308
  Cl  -0.08727035645423     -0.62316074796095      1.40679667328955
  H   2.19313940524137     -0.40458985426118      0.93227065521520
  H   1.20956560867518     -0.82075118592799     -0.52898464569850
  Cl  -4.37337304386548     -0.48356922813775     -3.58567517578888
  C   -3.66763861908299     -1.90933288741036     -4.41435174880806
  Cl  -4.50624678573080     -3.38842099994520     -3.96516967057797
  H   -2.62615497107822     -2.01768691905639     -4.11273019892971
  H   -3.77099209177352     -1.78060109167968     -5.49066249789607
  Cl  -0.37181946836106     -1.40427635329286     -2.72540875130737
  C   -0.85865414315957      0.29018197961333     -2.74039788050143
  Cl  -2.05695836166084      0.65039341728283     -1.44382380971671
  H   -1.31202940380970      0.49434412473832     -3.71068884636859
  H   0.03137330579802      0.89678034317322     -2.57804581094201
  Cl  -1.50863820100938      3.62199781407172     -3.32820510722287
  C   -3.06333163322062      3.12581633805136     -3.98820567285208
  Cl  -2.84437399495476      1.99078516967893     -5.31849438882370
  H   -3.56738432838643      4.00810099425321     -4.38101147088402
  H   -3.64547868518132      2.64701325537619     -3.19724415517113
  Cl  -6.30377454914547      6.46040725211184      1.60103421911045
  C   -4.53957505917355      6.51884548719419      1.65094629190466
  Cl  -3.83310982635513      5.80142839754741      0.17481915460517
  H   -4.20775752213153      5.93558517908808      2.50957971000599
  H   -4.23797459419022      7.56222744022442      1.71745528124076
  Cl  -9.47504073116964      0.25039556970985      4.07460189772865
  C   -9.54878463451803     -1.02153455525449      2.84841059691499
  Cl  -8.04442532034343     -1.95798911178466      2.81106860072892
  H   -9.68418971844909     -0.54534363834900      1.87755811449923
  H   -10.36662481917751     -1.69317311768802      3.10396505811630
  Cl  -6.48464971684169      1.04067585892670      2.59185510912109
  C   -6.16088063743023      2.02313997833130      4.01094862199133
  Cl  -6.66279457495099      3.70524586102078      3.74109310140091
  H   -5.08653629586333      2.01400820670652      4.19325602091897
  H   -6.73388533284601      1.61987804252206      4.84501556278864
  Cl  -9.34550546604494      1.54680625513709      0.37464113891506
  C   -9.42793622355212      2.87739024860297      1.52646826998580
  Cl  -9.15785293399612      4.43368644878005      0.71593779674751
  H   -8.64511047026745      2.72933645047740      2.26974433804118
  H   -10.42259737625431      2.87476153859936      1.96931429530834
  Cl  -3.13318110148715      0.17393930637346      4.11256675838482
  C   -3.44344666757158     -0.66294040515658      2.58549610888082
  Cl  -4.67380334753111     -1.90828191740017      2.80488253883128
  H   -2.51863121040755     -1.15045772903690      2.28053625912851
  H   -3.79645243547145      0.05761778057792      1.84137367603547
  Cl  -0.51576376320796      3.74869380885487      2.02706248831173
  C   -1.93171721786760      2.86024200529080      1.45189471663183
  Cl  -3.33713942276747      3.23626188696443      2.41345357092696
  H   -1.73974898929702      1.79202838905387      1.54589864793650
  H   -2.15669019644462      3.14950097516939      0.42228101018375
