26
Coordinates from ORCA-job surface_scan
  C   -6.00891977357311     -0.43996910783713      0.55597356754525
  C   -4.59277816428712     -0.23001494643670      0.54178505765780
  C   -3.49492351643471     -0.86065424453727      0.29899826000677
  C   -3.74273869675812     -2.33485592882979     -0.04414024195045
  C   -5.16081053919515     -2.79425625746974      0.27994901515095
  H   -3.01078000134160     -2.92973567393406      0.50473867069580
  H   -3.53877272060581     -2.43621711428515     -1.11303271804150
  C   -6.19247437060511     -1.78091456662720     -0.20439869568876
  H   -5.26455485870174     -2.92558544448632      1.35822732740579
  H   -5.33994587072236     -3.75939748596161     -0.19746492569325
  H   -7.20636015580846     -2.13980448313577     -0.02814137055022
  H   -6.06593758770884     -1.60195801736600     -1.27231556636682
  H   -6.51236407051710      0.37190673769381      0.02658888435341
  H   -6.39898735360100     -0.49718036988802      1.57508858450441
  C   -2.09237646060785     -0.36804607225864      0.28840733293519
  H   -2.07265348314425      0.61679701607571     -0.17581882820504
  H   -1.44858501268571     -1.05071458634532     -0.25906636288217
  H   -1.72708213104535     -0.27041844639792      1.30963202122650
  O   -4.25111162747425      1.82863037396061      1.14207287102265
  S   -4.41052552791037      2.51903566508592     -0.19140585828450
  O   -5.73965388945555      2.31163673558137     -0.74745095985642
  O   -3.32493861672050      2.18352618086484     -1.10011273065807
  C   -4.25211885013820      4.25965482044956      0.24692432886056
  H   -5.04547482269597      4.48674690963470      0.94401575741636
  H   -4.35062259089454      4.82788015198507     -0.66687285398294
  H   -3.27730930736711      4.39061815446503      0.69365943337868
