26
Coordinates from ORCA-job surface_scan
  C   -6.00605834278455     -0.44569621573570      0.56352429504404
  C   -4.59206823674610     -0.24744405076959      0.54828834592280
  C   -3.49129874716190     -0.86773401843236      0.30369162773174
  C   -3.74252548051218     -2.34279057469787     -0.04628477296367
  C   -5.16295380093969     -2.80066467356253      0.26843699788193
  H   -3.01388727022724     -2.94013619007180      0.50416686519572
  H   -3.53324655745580     -2.43720967333059     -1.11471366465321
  C   -6.19090231423069     -1.78117896609701     -0.21055818729003
  H   -5.27127329978206     -2.94211769902848      1.34496445404322
  H   -5.34258563519124     -3.76081440835995     -0.21888337038427
  H   -7.20644506516344     -2.13740092732003     -0.03861625227811
  H   -6.06159489088069     -1.59255817684338     -1.27634951052814
  H   -6.50423121757730      0.37205650129531      0.03752418007333
  H   -6.39815318523746     -0.50934750461543      1.58127772045133
  C   -2.08925202643821     -0.37632068226318      0.29120269831923
  H   -2.07274897926010      0.61120864079053     -0.16787960332661
  H   -1.44721369927541     -1.05593073146776     -0.26199406104837
  H   -1.72130159335486     -0.28358815340258      1.31190606194839
  O   -4.24537771608177      1.86224873015383      1.17720222186953
  S   -4.41379379226855      2.52580823855275     -0.16363305590352
  O   -5.74719656766832      2.30811599031423     -0.70953112784669
  O   -3.33477896733769      2.17317444357333     -1.07605043810056
  C   -4.25439613364735      4.27841474678674      0.22819071060163
  H   -5.04383070272514      4.52310858815087      0.92373792998433
  H   -4.35851290946062      4.82218273952988     -0.69967049044013
  H   -3.27717286859155      4.42132402685076      0.66589042569611
