50
Coordinates from ORCA-job surface_scan
  C   -5.76206803129265      1.02233776286611      1.24767633223994
  C   -5.05315770487688      0.04446122149180      0.37696673254832
  C   -3.75655901680244     -0.00668340918286      0.11919740918041
  C   -2.83053860301407      1.00721810953134      0.74143936533128
  C   -3.58515105670525      2.23493139490278      1.24220911203406
  H   -2.08916151810617      1.30360122705303     -0.00376175684047
  H   -2.29371411065526      0.53649314525202      1.57194257904346
  C   -4.76506580590137      1.80055207000434      2.10442148916985
  H   -3.95727921541813      2.80093111390190      0.38648563120836
  H   -2.91181370302199      2.87672928366912      1.81461905247614
  H   -5.25889587782975      2.66767116771520      2.54656188933628
  H   -4.40535148398191      1.16219098842154      2.91417405361533
  H   -6.48666982336395      0.48781886193091      1.86677256086110
  H   -6.33442866027105      1.69951270484032      0.60611842502879
  C   -3.12239930421078     -1.02728748193534     -0.77473767451741
  H   -3.85637586053590     -1.77531636303566     -1.05836848937201
  H   -2.28884218787367     -1.51068539410386     -0.26624001867002
  H   -2.74323072970357     -0.54598828840758     -1.67637629547948
  O   -5.99385740020465     -0.98543923573381     -0.28242487213940
  S   -7.18764294783334     -0.18137095933484     -1.21808460670032
  O   -8.28890496388811      0.81324543062545     -2.87034864202193
  O   -8.40839750855781     -0.26989132983983     -0.39441258627239
  C   -7.26758375086163     -1.66698660233457     -2.30515590462594
  H   -6.45625192782148     -1.58292813748152     -3.01590002145749
  H   -8.22384249792836     -1.66056538042355     -2.80879961768873
  H   -7.15336276186308     -2.54097447075487     -1.67676988330253
  C   -6.40627025508509      4.43410274328581     -3.30323987834911
  B   -5.63473269596071      1.78400131350515     -3.24367624115322
  H   -5.10534572537392      0.88636679080718     -2.67431483228813
  B   -7.87078398903053      3.57670426707607     -3.42165456930082
  H   -8.84453934507874      4.04324549900371     -2.92224350958712
  B   -5.39823616110741      4.25885519895035     -4.66401858651481
  H   -4.74080500253774      5.19063802291489     -4.99121692416773
  B   -6.55385123329571      3.02065942744290     -2.37611027083391
  H   -6.68351058623831      3.13195280496290     -1.19911051469567
  B   -7.15189985704826      4.34566122303759     -4.83538564450605
  H   -7.64444262910274      5.33387064776049     -5.27046907427595
  B   -7.78405806058863      2.70446689140458     -4.96434774920602
  H   -8.76395559271438      2.45230011473724     -5.58797218366449
  B   -4.91417192772493      2.55561841085851     -4.67355865348712
  H   -3.86589069038463      2.21232405558656     -5.11490924573723
  B   -6.23689795942159      3.12493366114141     -5.73111750640597
  H   -6.11677122366386      3.17924777354473     -6.91163568044801
  B   -5.02922243625204      3.43920060489377     -3.14584006257819
  H   -4.13031279938688      3.83644615612393     -2.48043780442485
  B   -7.40449903977186      1.87607189394073     -3.42916978305578
  B   -6.39345267443125      1.58649420611431     -4.85148645068316
  H   -6.39228237436289      0.53924463448574     -5.41535594142636
  H   -9.03326378512117      1.18129579457059     -2.39738947614270
  H   -6.41188750379306      5.38998043421252     -2.78733368005245
