100
Coordinates from ORCA-job ./surface_scan.047
  C   -3.52626184572129     -3.01019323420714     -1.52312099421001
  C   -3.91611358187188     -1.65784223473723     -1.00751160136907
  C   -4.52078264232435     -1.44969353960633      0.15415813707711
  C   -4.86369509444204     -2.57411810027000      1.09437863859167
  C   -4.82794642640450     -3.93085375675654      0.39583882663444
  H   -5.85140290955947     -2.39998313253943      1.52786568481685
  H   -4.14861485326682     -2.56837438323194      1.92402772988020
  C   -3.54332302549264     -4.05969061773456     -0.41507528475334
  H   -5.68578314954130     -4.02347939118710     -0.27446105558842
  H   -4.89514010208628     -4.73203533169365      1.13531031964612
  H   -3.45980352955480     -5.06095960615697     -0.84443322553778
  H   -2.68777910619192     -3.90371237238369      0.24601705631310
  H   -2.53293344513119     -2.95569139587008     -1.97629296905716
  H   -4.22326416584299     -3.29921095868447     -2.31832766374725
  C   -4.88762895930170     -0.07422244946576      0.62183028995856
  H   -4.64889068999425      0.65908844537274     -0.14162253376868
  H   -4.34626045967348      0.17056339293033      1.53577942998847
  H   -5.95145395683750     -0.02094593297644      0.84546620125378
  O   -4.10172446110441      2.07016874705108     -1.85924024949683
  S   -2.75696686448402      2.95344806342487     -1.88178742766218
  O   -3.41860538986167      4.11948877272929     -4.10298681891861
  O   -1.75517943937567      2.29351567992234     -2.74089147278591
  C   -2.24085254685637      2.38013100823376     -0.19692086646231
  H   -2.96391328905062      2.72781422945577      0.52891225477254
  H   -1.26404986847237      2.79604526521840      0.02211846122742
  H   -2.19420275692151      1.29949861900177     -0.21272646281019
  C   -5.67435720561413      0.98553546967923     -5.47733497148321
  B   -4.94753848977818      2.05347484461018     -3.05681059972719
  H   -3.69482270205624     -0.82387375295982     -1.65813911758773
  B   -5.01011309317244      2.50061787637572     -5.89724430362730
  H   -4.44114022042815      2.60149540305162     -6.92598675040946
  B   -7.12413171524555      1.07781643475725     -4.59590730417195
  H   -7.94124701535601      0.24225247180128     -4.78388690419501
  B   -4.31273643934681      1.48632286589107     -4.61904153335662
  H   -3.27727825857344      0.95599089480720     -4.80706807385560
  B   -6.75434935794429      2.23684222355845     -5.88145345843980
  H   -7.33809453996896      2.15947644329665     -6.90708220998318
  B   -6.08016288469482      3.70218704469661     -5.15294731084200
  H   -6.24145418755046      4.78126260212078     -5.61655674276693
  B   -6.69484127212161      1.80064503748744     -3.04478713842816
  H   -7.30311628349883      1.57196471898252     -2.05172764033537
  B   -7.39969945331954      2.80958099238145     -4.34221414100158
  H   -8.50320637987996      3.25581475181417     -4.25887056616218
  B   -5.61830537171566      0.60863528712566     -3.80709222140539
  H   -5.47289331345685     -0.51640568310971     -3.48310849355177
  B   -4.55717837864838      3.22844248163820     -4.34610954946779
  B   -6.04225868355718      3.42474911187966     -3.38964946934036
  H   -6.15443084148071      4.30172621071899     -2.59765482689159
  H   -2.60801978749679      3.71084355799125     -4.39868134062005
  H   -5.56211650861830      0.17067666568663     -6.18211726555742
  Cl  -5.18632383858572      7.38890462861165     -2.37210868435995
  C   -3.79900563535038      6.33890348824116     -2.10232509545936
  Cl  -3.94354054902916      5.49281804691209     -0.55958679812609
  H   -2.90760731612160      6.96298823982534     -2.06086072573526
  H   -3.75438662232069      5.58997764167967     -2.90193726782625
  Cl  -11.52284190887762      3.55295521618667     -2.50302462900069
  C   -10.16845678284599      2.93107439477913     -1.55013818352795
  Cl  -10.39995978680345      1.22339300598413     -1.16082099413395
  H   -10.11889721642368      3.49279446867642     -0.61888017026325
  H   -9.25475432065089      3.02603728911918     -2.13932116393525
  Cl  -8.46583963735871     -1.40439041607112      0.44972830560224
  C   -7.69868318396844     -1.35546396603249     -1.13974631656375
  Cl  -8.65607587305252     -2.24694863695560     -2.32783619925827
  H   -6.71256530123489     -1.81191589065134     -1.05792402319383
  H   -7.63172886149299     -0.31471704655766     -1.45800142882078
  Cl  -8.98898162849402      6.40635917284235     -7.31842317091389
  C   -9.35850487065903      4.71161304437163     -6.98329874242851
  Cl  -9.69593357690661      3.83461147198023     -8.47506684564380
  H   -10.24860583551913      4.66927188439746     -6.35701520939647
  H   -8.49077059279291      4.25343460804462     -6.50514797836815
  Cl  -8.46315794222690      5.95229940657861     -1.42338186459295
  C   -8.35142434280456      6.30897291700112     -3.14520860062493
  Cl  -9.95680595935109      6.33209236668246     -3.88585946048900
  H   -7.75686706548824      5.52304981671507     -3.61567171223750
  H   -7.90233132187300      7.29466864442715     -3.25658890271878
  Cl  -10.90828155465404     -0.79449512010732     -5.04116851197152
  C   -10.93317769860348      0.91391906621326     -4.58266990410168
  Cl  -11.28900380968137      1.93978008447438     -5.97578270688747
  H   -9.94432806116409      1.18382405308022     -4.21062606262918
  H   -11.71669006029047      1.05817595852858     -3.84094537509305
  Cl  1.86191776375486      3.75252607388474     -1.54273924906151
  C   0.44793563548426      4.11468876775803     -2.53434189949618
  Cl  -0.66629652442118      5.18690162556696     -1.68185846103526
  H   -0.11350480430929      3.19036980126737     -2.73759095349117
  H   0.78525450528808      4.62080527506188     -3.43686284050620
  Cl  -10.48498436548351     -0.85824106545656     -8.61380248352367
  C   -9.10390833519146      0.09391084819194     -8.05669433258077
  Cl  -7.63687787741825     -0.34776281443163     -8.93306133076550
  H   -8.94406340014936     -0.11084868117339     -6.99874496765084
  H   -9.31580439873573      1.14664872215448     -8.24259371258801
  Cl  -6.13329407408426     -0.73790706727257      4.20399144498571
  C   -7.15672915857228      0.51670118963728      3.49810566994649
  Cl  -8.28579798725794      1.15949889472898      4.69704699013326
  H   -7.73420671646889      0.07510383735627      2.68571761777247
  H   -6.51808868608369      1.33154438543538      3.15784932802103
  Cl  -5.32067026399229      3.42031955427513      1.83546058264923
  C   -6.30878113229322      3.31189981037588      0.37644648001030
  Cl  -7.78744029224261      2.40604529196396      0.70698381552534
  H   -5.74277660114469      2.79002395627497     -0.39717486221171
  H   -6.58846718912761      4.32057401537642      0.07451911592785
