100
Coordinates from ORCA-job ./surface_scan.046
  C   -3.51727200159480     -2.96550235002110     -1.54217476903216
  C   -3.91508771812981     -1.62049847095933     -1.01362339751350
  C   -4.51936127096668     -1.42770829731134      0.15109708781387
  C   -4.85144581550199     -2.56284410062246      1.08261300814921
  C   -4.80402517179921     -3.91371886000168      0.37341557512399
  H   -5.84027130962507     -2.40161378371100      1.51867260851265
  H   -4.13539577574780     -2.55690666352851      1.91144611851531
  C   -3.52065215502419     -4.02381070070014     -0.44222130960128
  H   -5.66301847011540     -4.00993894155889     -0.29487679640165
  H   -4.86097422253842     -4.72119969354943      1.10695816612481
  H   -3.42870453377416     -5.02095351825165     -0.87932123422713
  H   -2.66465514899860     -3.86428642783920      0.21742386818749
  H   -2.52656579816816     -2.89916758877083     -1.99951819622958
  H   -4.21530652831804     -3.25442115324543     -2.33644726561411
  C   -4.89250412254984     -0.05876127561496      0.63086671571639
  H   -4.65602016658811      0.67872486239353     -0.12890018269323
  H   -4.35063646336012      0.18185407257692      1.54563463558353
  H   -5.95619466065507     -0.01096703464560      0.85636952938456
  O   -4.10583293374047      2.05099291890131     -1.85471845821048
  S   -2.76260895605855      2.93740195276150     -1.87627709526208
  O   -3.41479443021986      4.10058436342204     -4.10090970431558
  O   -1.75746988884582      2.27486698373136     -2.72926430560474
  C   -2.25005197041900      2.37367316090732     -0.18699787176537
  H   -2.97344213433472      2.72607127131746      0.53628327704440
  H   -1.27275740211052      2.78892320272405      0.03079198207784
  H   -2.20580200621350      1.29303479370908     -0.19680747255900
  C   -5.68019571072296      0.97292282726575     -5.47369448283877
  B   -4.95110237683231      2.03853608486416     -3.05322083503946
  H   -3.70239014582378     -0.77927041737529     -1.65707383863928
  B   -5.01032267384095      2.48556273385331     -5.89338093581990
  H   -4.44060944049666      2.58402210677050     -6.92195049336590
  B   -7.13071039962697      1.07047015327597     -4.59334375370825
  H   -7.95056125785140      0.23788483268528     -4.78170563686668
  B   -4.31757463522372      1.46972514886346     -4.61425078830236
  H   -3.28372937922662      0.93576327295749     -4.80128601707496
  B   -6.75575247160573      2.22755348605398     -5.87867923818765
  H   -7.33770750820208      2.15212072979741     -6.90549756613075
  B   -6.07711388404590      3.69169832556098     -5.15061560918098
  H   -6.23426845809029      4.77114917185350     -5.61470083577804
  B   -6.69993968809308      1.79322631196833     -3.04233318620096
  H   -7.30879705090304      1.56733175412444     -2.04907686715176
  B   -7.40021135500711      2.80378983774295     -4.34099210217838
  H   -8.50215449567997      3.25381233407745     -4.25885798201893
  B   -5.62732761398805      0.59684577556120     -3.80370302022878
  H   -5.48630650699940     -0.52831898724933     -3.47947140963235
  B   -4.55608228578541      3.21261130294924     -4.34257747106995
  B   -6.04092106441829      3.41462306876670     -3.38736298642839
  H   -6.15108591544093      4.29264705903569     -2.59618285496166
  H   -2.60523325591206      3.68896987404562     -4.39525129260420
  H   -5.57057681625178      0.15758535472762     -6.17830267897245
  Cl  -5.17978199904160      7.37972680349626     -2.38281286442280
  C   -3.79517934321749      6.32785563092902     -2.10828565850967
  Cl  -3.94329744072963      5.48680141754694     -0.56311009174707
  H   -2.90236916372257      6.95001763149724     -2.06768675204285
  H   -3.75092184825386      5.57644766664200     -2.90560087695502
  Cl  -11.52026431535475      3.56591617489507     -2.50525797544837
  C   -10.16944635660483      2.93816840987617     -1.55094543910429
  Cl  -10.40860018731519      1.23095249556866     -1.16320806244384
  H   -10.11958405051739      3.49935998590746     -0.61943441838292
  H   -9.25464213121075      3.02943559336894     -2.13893274855842
  Cl  -8.46209814239135     -1.41297372390202      0.45572314759470
  C   -7.70004209340253     -1.35999709838174     -1.13550855500197
  Cl  -8.65530263774305     -2.25644896830269     -2.32173050117381
  H   -6.71054475925915     -1.80982820628891     -1.05756221885045
  H   -7.63981979049765     -0.31876113463788     -1.45371461339888
  Cl  -8.97301370906463      6.40427192060134     -7.32088643152720
  C   -9.34900230054480      4.71104851275107     -6.98554564260596
  Cl  -9.68793575870626      3.83435936854674     -8.47715441821943
  H   -10.24003001727238      4.67215568631595     -6.36032907026849
  H   -8.48365581771541      4.25001612310690     -6.50583634680837
  Cl  -8.46009535192177      5.95406454527319     -1.42729278067068
  C   -8.34353372280898      6.30832997801095     -3.14940414454987
  Cl  -9.94736739348978      6.33695643323949     -3.89297709501474
  H   -7.75101590859285      5.51939698577714     -3.61734745407392
  H   -7.89033583672325      7.29213928987708     -3.26076977814834
  Cl  -10.92049323634822     -0.78820429969322     -5.03920346210201
  C   -10.94172754348518      0.92072852222013     -4.58237189225764
  Cl  -11.29275111620903      1.94587613391855     -5.97718400103348
  H   -9.95283805089111      1.18786793732609     -4.20854486739529
  H   -11.72612766544527      1.06795326847636     -3.84215130447471
  Cl  1.85336377348185      3.73311769238139     -1.51642852305476
  C   0.44609055074424      4.09213133629261     -2.51842658854369
  Cl  -0.67235154826292      5.16980235078027     -1.67812305753305
  H   -0.11543635390106      3.16780190605725     -2.72042525890465
  H   0.78916324298157      4.59375169002240     -3.42128098065582
  Cl  -10.50011374675448     -0.85101626083297     -8.61201149366982
  C   -9.11390182022980      0.09422675987107     -8.05558160707120
  Cl  -7.64966984148258     -0.35520654718235     -8.93253235856801
  H   -8.95509596447156     -0.11113023780955     -6.99761492105577
  H   -9.32046293017682      1.14797203668974     -8.24182535217074
  Cl  -6.13434055900031     -0.73976195314060      4.20736202160273
  C   -7.16383286377713      0.51212283499162      3.50556316755920
  Cl  -8.29388558141008      1.14724317429808      4.70776711429791
  H   -7.74063249725188      0.07009039395133      2.69289709712922
  H   -6.52891379760500      1.33008211073875      3.16614016183471
  Cl  -5.33083561909754      3.42811824906185      1.83962295427751
  C   -6.31595911453869      3.31392694381344      0.37886640042526
  Cl  -7.79527518250122      2.40945272471619      0.70974997198106
  H   -5.74810284381766      2.78870851041952     -0.39119812780546
  H   -6.59464416894482      4.32146233670237      0.07239306684421
