26
Coordinates from ORCA-job surface_scan
  C   -6.08441071504594     -0.45880441068115     -0.32192199891801
  C   -4.69630997249207      0.10939479227614     -0.36351380667912
  C   -3.58112998684805     -0.57457888006428     -0.12878388035959
  C   -3.63228817421325     -2.04318499258281      0.19810768042221
  C   -5.01913930232559     -2.48562542466204      0.65336771200967
  H   -2.89628261164437     -2.25374680211380      0.97734163309627
  H   -3.33604187904878     -2.61115747109805     -0.69000698468207
  C   -6.06574808935893     -1.98522574394978     -0.33501281978372
  H   -5.22868734497878     -2.06444614249878      1.63830600512881
  H   -5.05478186225476     -3.57395253360712      0.73006162637453
  H   -7.05467317163241     -2.36649037140350     -0.07568186979025
  H   -5.81647978260275     -2.33975872007236     -1.33722727923705
  H   -6.64907127819582     -0.06596412417663     -1.17229678012827
  H   -6.57030542841596     -0.08734549859090      0.58677935529204
  C   -2.21156970573200      0.03525722552581     -0.18772430885541
  H   -2.23463743585562      0.98837301945570     -0.70832516755003
  H   -1.52834964904566     -0.63630241048398     -0.70538824046659
  H   -1.82998924040924      0.18943713698113      0.82204358491714
  O   -5.10898190463088      1.63353956969021      1.73793150295694
  S   -5.06604733197821      2.43190855656575      0.54570772579479
  O   -6.25332461790977      3.15964649190721      0.19294303057918
  O   -4.64893018932189      1.47615587262929     -0.67442975336997
  C   -3.67510560179557      3.56779518661591      0.59021324568008
  H   -3.94946211791580      4.39441209902130      1.23215878526807
  H   -3.50791138854264      3.90474793158683     -0.42340501242449
  H   -2.82314121780514      3.03262564372997      0.98459601472487
