26
Coordinates from ORCA-job surface_scan
  C   -6.07217264549931     -0.45201806790963     -0.30227570534823
  C   -4.67925764162829      0.10328548150871     -0.34864628407676
  C   -3.56853660456123     -0.59201800190472     -0.12521222979585
  C   -3.63082382057681     -2.06453190325823      0.18130297346842
  C   -5.01824637563925     -2.50037270738092      0.64144155748467
  H   -2.89058330750965     -2.29328585813863      0.95134674404747
  H   -3.34715363525789     -2.62263146138887     -0.71709687566542
  C   -6.06826247831343     -1.97833340177490     -0.33209539311147
  H   -5.21664793068437     -2.09082766332712      1.63360461336044
  H   -5.06309770845778     -3.58924637912271      0.70418263379296
  H   -7.05856884858841     -2.35303667767355     -0.06845528171952
  H   -5.83118277485829     -2.32405647275659     -1.34030704559741
  H   -6.64014532364474     -0.04465808207795     -1.14355881808712
  H   -6.54718777597920     -0.08537325042185      0.61421709446510
  C   -2.19479222543597      0.00846340708469     -0.18132615363389
  H   -2.21305264572300      0.96892530103890     -0.68835254022014
  H   -1.51816069665546     -0.66061708292690     -0.71064518291515
  H   -1.80834648128504      0.14675343651743      0.82890872520405
  O   -5.13805363524363      1.69351618588257      1.76647398895691
  S   -5.07754298438645      2.44951890658699      0.54687000460235
  O   -6.26563201579246      3.15180757369908      0.14789964361762
  O   -4.61995013399924      1.47294348467515     -0.64203373228072
  C   -3.69859873918382      3.59952157232508      0.58284138728488
  H   -3.98802323842268      4.43716441863560      1.20344184464068
  H   -3.52175487719975      3.91543336307565     -0.43583163270334
  H   -2.84702545547370      3.08038387903274      0.99914566422947
