76
Coordinates from ORCA-job ./6_triflate_solvated
  C   -6.67895225064117     -1.02316095673943      0.60378030823347
  C   -5.28348371921749     -0.50764599086569      0.74398452861418
  C   -4.17084233030981     -1.21760655744971      0.56916406256952
  C   -4.25782707361103     -2.67673051099916      0.20467639484719
  C   -5.64428648554860     -3.28792600518914      0.36530026837497
  H   -3.52714682660251     -3.23906530079643      0.79856139754340
  H   -3.91613989174370     -2.76895533851423     -0.83839533803162
  C   -6.69692308973566     -2.33490312584523     -0.16094796942549
  H   -5.84194482028685     -3.48168068023242      1.42965551446088
  H   -5.68965446276984     -4.25427442277014     -0.14709007093063
  H   -7.70447227926578     -2.75593084750829     -0.12638764848401
  H   -6.49797962118795     -2.11226619962828     -1.21612509296003
  H   -7.27501969083100     -0.27372181202924      0.08647712042376
  H   -7.12630817311387     -1.14110568085519      1.60174090549363
  C   -2.80386165907193     -0.63582279981244      0.67458252592191
  H   -2.82420351719758      0.38011868575049      1.06320329588170
  H   -2.31984483940867     -0.61072585587125     -0.30830103591127
  H   -2.17932145181308     -1.24963151412107      1.32788601834810
  O   -5.20771064908030      0.82610952238199      1.11120615309100
  S   -5.25196451684537      1.93902145359302     -0.03391347188564
  O   -6.49673955388230      1.85434338742485     -0.73209993812035
  O   -4.02732085257662      1.91552025803726     -0.77718217416336
  C   -5.25831742178083      3.32738068082597      1.03925574552026
  H   -6.13182423979186      3.28686124045628      1.66728440520203
  H   -5.29301429023119      4.20082747526925      0.40177815841699
  H   -4.34965890523466      3.31838742265207      1.62677291634620
  Cl  4.18050026606866      1.17731499363388     -2.24218447356053
  C   3.26494033712577      1.12901661877107     -0.73782395684909
  Cl  3.90492763031862     -0.04347688819930      0.41215926232780
  H   2.24280079719767      0.84580486943170     -0.96818145481866
  H   3.31421077284454      2.11494872742879     -0.28731077595326
  Cl  -5.47875709745663     -2.78788910075412     -5.19581311588641
  C   -4.87403904771277     -3.36764454578946     -6.73945108716098
  Cl  -5.79954277897076     -2.75641137148349     -8.11107941247990
  H   -4.93849579817538     -4.45427199565370     -6.74514624656893
  H   -3.84598280581977     -3.02573850136166     -6.84966437372102
  Cl  -0.87936199989576     -0.44126242027762     -7.09222665650795
  C   -0.27829512484552      0.08824609128309     -5.52162165677988
  Cl  -1.47713928951217     -0.05169897468867     -4.24568956873947
  H   0.00535451944540      1.13433175151841     -5.61129120934601
  H   0.57224035032756     -0.53283013719217     -5.25572726713060
  Cl  -5.71471410442928      2.22540002008277     -3.97075734425934
  C   -5.64271864775719      2.46188223536120     -5.71412453038435
  Cl  -4.23005983623836      1.69120799490585     -6.44794564591446
  H   -5.58173152510575      3.52684020405461     -5.92090039259446
  H   -6.53526593262373      2.02838615026150     -6.15782327236574
  Cl  -1.18115426632452      9.96478335635387     -0.82146713407896
  C   -2.87643194385520      9.74634125075521     -0.39532434120134
  Cl  -3.86506782569799     11.15939773785708     -0.75113739555086
  H   -2.93894577883963      9.55649617292254      0.67065152237748
  H   -3.26436225022270      8.90657925239782     -0.97275039761402
  Cl  -14.52124881897162     -0.91058908482420     -1.02325586779411
  C   -12.84266079988052     -1.25207234522102     -1.44996696848372
  Cl  -11.85035257401606     -1.70698781005189     -0.04670790545666
  H   -12.42214183880633     -0.35116082281394     -1.89756547812257
  H   -12.83165712227206     -2.08742777821518     -2.14007404211096
  Cl  -4.42010271774322      2.43474041388578      6.20144953729976
  C   -4.77378746792177      3.12230767727081      7.78613701493367
  Cl  -3.93390508932655      4.65181979538862      8.07232215135834
  H   -4.45276216920163      2.40809501061730      8.54340849171369
  H   -5.84323755806860      3.30874209229679      7.84043915904250
  Cl  -11.96083020969348      2.27840371299214     -2.70445602266971
  C   -11.88289249431593      3.57798968770315     -1.51260194132965
  Cl  -10.77912013146808      4.86180134714285     -1.98049742438969
  H   -11.53906377119356      3.15665773600739     -0.57393825096348
  H   -12.87607638760096      4.00273880628606     -1.41262106488717
  Cl  -3.67930489834471     -1.08047471923866      5.51502500280318
  C   -4.14847247176920     -2.76112006439037      5.80689017475777
  Cl  -3.47128382238602     -3.40317127954894      7.30177574222796
  H   -3.77910777231133     -3.36631055061834      4.98569333731037
  H   -5.22631479901174     -2.80266620380028      5.86692305402020
  Cl  1.76956027813138     -0.06173769724272      6.96669026410679
  C   0.11803843441473     -0.16144625902949      6.35886660512605
  Cl  -0.80321361441197      1.31465937333413      6.65441170179115
  H   -0.38278344589701     -0.98286976386036      6.86724187014683
  H   0.15994525400197     -0.32942129285290      5.28768480495363
