76
Coordinates from ORCA-job surface_scan
  C   -6.44538514581188     -0.11034955238588     -0.56156976341212
  C   -4.96040841567768     -0.16197458839832     -0.29554439639399
  C   -4.27702485947664     -1.30807779330559     -0.20107525858938
  C   -4.94763770182094     -2.65003255377194     -0.30629184998673
  C   -6.45652019155961     -2.56331141630941     -0.10969548342062
  H   -4.50615916188247     -3.32943371554687      0.42716488998636
  H   -4.73780283630587     -3.06792354820912     -1.29506540244773
  C   -7.00377800335932     -1.45977797007931     -1.00359952182965
  H   -6.68842512137048     -2.33668591538879      0.93274800128879
  H   -6.91618014804896     -3.51988799192239     -0.36162972177165
  H   -8.09407027403169     -1.43227452975731     -0.96752513904462
  H   -6.70671221827984     -1.66041085872337     -2.03330373685367
  H   -6.62386615598435      0.63413701942980     -1.34073571907722
  H   -6.95037265082963      0.22601231126336      0.35010139019800
  C   -2.79103162882748     -1.34101422254571      0.00131789263816
  H   -2.38716009263061     -0.33311079032084      0.01435821824053
  H   -2.32371521252975     -1.90291668328582     -0.80699114941769
  H   -2.53573510577968     -1.83023544171442      0.94071763943692
  O   -4.35365347198587      0.98852882024601     -0.10703128675328
  S   -4.51301838058089      2.29760515542733     -1.01964461950114
  O   -4.90714464873176      1.93679257564019     -2.35253502165182
  O   -3.27903251585251      3.00506870191412     -0.88391763051348
  C   -5.81286666167491      3.23335143798220     -0.22853932336291
  H   -6.76466297071229      2.77604777862981     -0.45805661870046
  H   -5.76380894771716      4.24031035656536     -0.62178764896777
  H   -5.61870071121215      3.23083857590888      0.83506727283337
  Cl  1.06599827294441      1.26455630008062     -0.18576405452907
  C   0.88799626243771     -0.42341653699542      0.32965161552606
  Cl  0.08679648686393     -0.52479787659266      1.90582555119478
  H   1.88092162707679     -0.85997329329852      0.42388222226801
  H   0.27509248275392     -0.94688364287111     -0.40390546575423
  Cl  -4.40243215949172     -0.58136052415853     -3.47011801667891
  C   -3.83228851382192     -2.03620221524442     -4.34054611574664
  Cl  -4.92434535239150     -3.39894694877531     -4.08620701046613
  H   -2.85139001624216     -2.31101675028620     -3.95473866460542
  H   -3.80487918519583     -1.81500443836191     -5.40625274940440
  Cl  -0.48997581022454     -1.29733153466855     -2.97396451224347
  C   -0.61157566095431      0.40268659750412     -3.40578574185840
  Cl  -1.77230779639806      1.26686590811231     -2.33811268623913
  H   -0.96888559696564      0.45796884789522     -4.43398941822517
  H   0.37582254502036      0.84582419285346     -3.28633878653082
  Cl  -2.48612943721165      3.73032297131571     -4.80747958738051
  C   -3.70648850174730      2.50853633332480     -5.19567548585450
  Cl  -2.98280545654225      1.14788328968914     -6.04851633658941
  H   -4.44800302048926      2.95787838660485     -5.85485780339760
  H   -4.14695471432474      2.15108469769698     -4.26233796453747
  Cl  -5.87146114140686      6.13111972874076      1.99177925515648
  C   -4.10771185030732      6.07247481347695      2.06546529286578
  Cl  -3.41750792127954      5.70490123979379      0.46517163399397
  H   -3.82388961768904      5.27929910031141      2.75656151146899
  H   -3.74637760967012      7.04753778624490      2.38673741169937
  Cl  -11.40955181541364     -0.19931210201761      2.37062503117616
  C   -10.07738309629225     -1.11986219273620      1.65538079680985
  Cl  -8.62314513388311     -1.01557078689191      2.66240046891108
  H   -9.85227650268051     -0.68852093968435      0.68096872926571
  H   -10.37692567332985     -2.16453175632880      1.58948236876823
  Cl  -6.23973180148037      1.37301106316262      2.77933273748980
  C   -5.73702654602919      1.93507943041411      4.36732805559113
  Cl  -5.89330481293279      3.69433484343395      4.48511907879046
  H   -4.68912536219976      1.66871735063603      4.49880487701855
  H   -6.38272859327989      1.47209038868018      5.11240428577265
  Cl  -9.35454398769487      1.99758529909977      0.15232802529840
  C   -9.38512465497840      2.59244696308889      1.81516332608205
  Cl  -8.48946034044924      4.12064894861668      1.95362303071886
  H   -8.90237642501663      1.84756211760287      2.44639257294801
  H   -10.42425558433485      2.76216342948031      2.09220378110014
  Cl  -3.08628004303592     -0.55070261176025      3.75427127978419
  C   -4.44735138980942     -1.55868854338230      3.24074382236583
  Cl  -5.75172422090282     -1.53439568539291      4.43489228672055
  H   -4.09616747761690     -2.58532022579047      3.14691309694171
  H   -4.82901381302234     -1.16474851176776      2.29782842466268
  Cl  -0.78449730813769      4.12387456888849      2.41720895167660
  C   -1.63701822218345      2.79285688113128      1.62059714669726
  Cl  -3.26277395880392      2.62254335308501      2.24371313946415
  H   -1.10031983410364      1.86674421669560      1.82509556688033
  H   -1.72486848445732      3.01038290800226      0.55526901200733
