26
Coordinates from ORCA-job surface_scan
  C   -5.94214550121821     -0.29210719111282      0.61777560246891
  C   -4.49996234603047     -0.09018786073979      0.52241409490231
  C   -3.48872944719512     -0.85137985524582      0.20761092613722
  C   -3.82735797272965     -2.30066742321029     -0.08891083668363
  C   -5.21738335844626     -2.68696476292304      0.40907523525690
  H   -3.06612382732849     -2.93419329756628      0.37012002927772
  H   -3.76473371755917     -2.43549244307864     -1.17228588128713
  C   -6.24823180136415     -1.65324297228373     -0.03257127699320
  H   -5.21010452249548     -2.74657140627057      1.49877499630016
  H   -5.48262572005423     -3.67007898549672      0.01669586148098
  H   -7.25390415372097     -1.96676902585162      0.24890847487791
  H   -6.21218486665742     -1.54368020409602     -1.11724973745587
  H   -6.45934652101354      0.50778834351799      0.08536003744410
  H   -6.26015869100340     -0.27420278165338      1.66411043790774
  C   -2.05338541374124     -0.45722644196303      0.12521251976454
  H   -1.95958841316852      0.61675653966371     -0.01201128388914
  H   -1.57263470372503     -0.97058707705606     -0.70506110408307
  H   -1.54053503199070     -0.73913558111331      1.04499035473679
  O   -4.09161516199435      1.63593867913947      0.96672617231758
  S   -3.97771145628827      2.49816922572792     -0.30902934684321
  O   -4.81845922783501      1.97383537268738     -1.36090811448092
  O   -2.58943088022519      2.70456849024160     -0.65873323685816
  C   -4.65734254825835      4.05331545696405      0.28162569075238
  H   -5.71575274673707      3.90681648189644      0.44225747899006
  H   -4.47031013931813      4.79732355488733     -0.47984267172040
  H   -4.14304182990148      4.29468516493525      1.20078557767943
