26
Coordinates from ORCA-job surface_scan
  C   -5.87961355849698     -0.30111679463422      0.00906552197380
  C   -4.43620035996231      0.09077664882508     -0.07709300775374
  C   -3.41376985496022     -0.75846414866165     -0.12237480532761
  C   -3.64465201704011     -2.24606503905718     -0.12034556591433
  C   -5.03360189291247     -2.61284403570997      0.39100934689313
  H   -2.87830669337990     -2.72048153616193      0.49713856823549
  H   -3.51592728588721     -2.62480775324311     -1.13979673347509
  C   -6.08000658582389     -1.77485094245753     -0.33258282423068
  H   -5.09224166280044     -2.41305837340196      1.46204127717904
  H   -5.21818886226128     -3.67692038969661      0.23207538610478
  H   -7.08594519189910     -2.08461957630073     -0.04657104798976
  H   -5.97434600046403     -1.91960924776154     -1.40944849109813
  H   -6.45750796574400      0.33834776310211     -0.66173261392181
  H   -6.22837000464540     -0.09117904261858      1.02537574713201
  C   -1.98340632967640     -0.31656433275042     -0.20980775362975
  H   -1.49966792392413     -0.77969265939551     -1.06923553579067
  H   -1.44059797900535     -0.62273800283508      0.68434073515188
  H   -1.92294115498820      0.76287077076399     -0.30769514621525
  O   -5.37039779167933      2.05827389391198      2.02730112903063
  S   -5.17065843771406      2.48122368655451      0.67542320476717
  O   -6.33072406523029      2.74837076687598     -0.11594240761155
  O   -4.19024758142871      1.46827438273098     -0.09812317860774
  C   -4.06820003109665      3.89875403179239      0.62569229669359
  H   -4.59975302177076      4.74718299202759      1.03514778303295
  H   -3.80827039475306      4.06680624147619     -0.40958910865526
  H   -3.19925735245554      3.65884069662515      1.22156722402690
