26
Coordinates from ORCA-job surface_scan
  C   -5.91750258628836     -0.31134110973360     -0.09280819556348
  C   -4.47940923699788      0.10338036909016     -0.16641536812755
  C   -3.44096322100259     -0.72647221002020     -0.13786189667568
  C   -3.64495329008770     -2.21602391615453     -0.06435136215538
  C   -5.04166257410750     -2.58293378836586      0.42570738567463
  H   -2.88881986320553     -2.64238031014530      0.59891005963541
  H   -3.47897090365416     -2.64403963120944     -1.05869413387540
  C   -6.08234995920886     -1.80307809165520     -0.36803567461981
  H   -5.13445139257130     -2.32924682304974      1.48274627378342
  H   -5.20240653686497     -3.65713371995693      0.31672810326485
  H   -7.09009105986273     -2.11854175260826     -0.09476077435562
  H   -5.94315774606142     -1.99785012420595     -1.43321933015683
  H   -6.49261090498014      0.28620125428031     -0.80395191756865
  H   -6.29013889269127     -0.06148553391157      0.90574114428581
  C   -2.01708840688011     -0.26161895892482     -0.20806126253392
  H   -1.49115523433832     -0.78273768348071     -1.00726301684649
  H   -1.50530532788097     -0.48170747887247      0.72873054596081
  H   -1.97273837418437      0.80746040661807     -0.39206831402991
  O   -5.15411461134688      1.89198178831522      2.03329798527494
  S   -5.12397418888962      2.43917942360198      0.71218744696952
  O   -6.37100078259784      2.77545313795262      0.10084888934232
  O   -4.26814893794939      1.48307431932406     -0.25985074883917
  C   -4.02215071598740      3.85773671403112      0.64712166305625
  H   -4.50128795504182      4.67687745712764      1.16613904085720
  H   -3.87054730798832      4.09550273634668     -0.39604286522056
  H   -3.09779998933036      3.57645352560669      1.13106632246330
