26
Coordinates from ORCA-job surface_scan
  C   -5.86303762532490     -0.30095977623926      0.07301517091348
  C   -4.41838175888170      0.08323427238728     -0.02321723725585
  C   -3.40324066260869     -0.77104055788934     -0.11544431552812
  C   -3.64472943841604     -2.25658007402152     -0.15351591794402
  C   -5.02618018642388     -2.62909946341805      0.37348338919430
  H   -2.87011353784222     -2.75468093613497      0.43435149497136
  H   -3.53871582386622     -2.60549821303247     -1.18610970890627
  C   -6.07956150422028     -1.76345104657695     -0.30593474928118
  H   -5.06331824466656     -2.46060141341211      1.45088549668784
  H   -5.22143337094062     -3.68680215332719      0.18721475327148
  H   -7.08230990599799     -2.07435015956677     -0.01013568737991
  H   -5.99499003184289     -1.87843483092797     -1.38816644722042
  H   -6.44466363054828      0.35943215813009     -0.57354502740391
  H   -6.19795918356858     -0.11601432170015      1.09877109363666
  C   -1.97141097299789     -0.33631427266898     -0.21529240696834
  H   -1.50907985094322     -0.76983999765215     -1.10157339683379
  H   -1.41242116070159     -0.67999081261470      0.65493059270387
  H   -1.90465900442585      0.74556426423570     -0.27325699943222
  O   -5.51964085908607      2.14961601726996      1.98649105503564
  S   -5.19662340596993      2.50429973413080      0.63863953038990
  O   -6.28011775687894      2.73805228238730     -0.26448723766405
  O   -4.15634916372849      1.45812108072432      0.00251471429959
  C   -4.08195206861548      3.91242046588285      0.62179098434228
  H   -4.63489534231898      4.77616394734610      0.96569388750259
  H   -3.74737016454519      4.04641914965671     -0.39687949733565
  H   -3.25964534463934      3.68704465703140      1.28561646620475
