50
Coordinates from ORCA-job surface_scan
  C   -5.72985791821533      1.02940819756717      2.00857006102599
  C   -5.03956117178654      0.23545324820651      1.01844025926324
  C   -3.96332112746343      0.34505019787437      0.31108582103050
  C   -3.12000774882518      1.59508538787881      0.59575517292747
  C   -3.94676344516662      2.66739808652537      1.29995876930895
  H   -2.74025166954338      1.96830933817973     -0.35573239362043
  H   -2.27178641315556      1.29432454938588      1.21621755040930
  C   -4.70715497073192      2.09092723203820      2.49099910501401
  H   -4.66063613165321      3.08877270979694      0.58994988161768
  H   -3.28793541495594      3.47065337407680      1.63776182031937
  H   -5.24138404496374      2.87764618777177      3.02518236492487
  H   -4.00466840829565      1.61582520315725      3.17721731194322
  H   -6.06784871503685      0.41904615980677      2.84844351282510
  H   -6.60788980210694      1.50086755779256      1.55799760756563
  C   -3.44552987619598     -0.60543870036904     -0.71549460086173
  H   -4.07047140364464     -1.49270877748941     -0.73053180008329
  H   -2.41593354677385     -0.87999283074215     -0.49119192312860
  H   -3.47680027541284     -0.13678697354141     -1.69743518974849
  O   -6.53549658755098     -1.57899315704222      0.12872436016760
  S   -6.86055799676908     -0.83384523312555     -1.15737539232375
  O   -8.44545195572128      0.84440879760393     -3.49639836185910
  O   -8.17552671006914     -0.10629804638700     -1.01296246732848
  C   -7.34899840751075     -2.28420473827497     -2.26390375574996
  H   -6.48347375609917     -2.92494295895166     -2.38420633108404
  H   -7.66303481183053     -1.86655945330928     -3.21358079674995
  H   -8.16383054567424     -2.81916857964521     -1.78950223212022
  C   -5.87967707383946      3.99751747858721     -3.08802854825383
  B   -5.70006460937618      1.40203032482274     -3.99747759523860
  H   -5.35562596674295      0.27822961432641     -3.84133554166429
  B   -7.49366521487345      3.49558629536138     -3.18384446928199
  H   -8.28462051413507      3.90464600896361     -2.40251592420553
  B   -5.10880424785381      4.13023343532917     -4.60418546627585
  H   -4.30658727236422      4.98757950794250     -4.74289677531548
  B   -6.22909645827835      2.39866446980837     -2.63230544314204
  H   -6.18242804935547      2.10821758059340     -1.48554780808645
  B   -6.81546775911064      4.55312744280493     -4.40830456028087
  H   -7.14425894020512      5.68983290246610     -4.41835517997227
  B   -7.79416958461482      3.17737274510327     -4.92632278673452
  H   -8.87341076118673      3.32290610152642     -5.39525801664405
  B   -5.01964493635214      2.47210276086751     -5.22863534140995
  H   -4.14140547342529      2.11102196770869     -5.93568557726505
  B   -6.29239782357618      3.58892206082310     -5.79629505691803
  H   -6.30768084538481      4.02045360331197     -6.89860718209018
  B   -4.75119764137742      2.79801893038763     -3.49935061556470
  H   -3.71543769116837      2.78236717139736     -2.92909024773694
  B   -7.46072967558596      1.81316466870598     -3.80496576109088
  B   -6.68618208178757      1.89608003994461     -5.42999559251208
  H   -6.97544797524759      1.10674915323682     -6.26703079282827
  H   -8.38422635988319      0.52882716500310     -2.57397956416986
  H   -5.61523018912168      4.70937179219285     -2.31276450700271
