50
Coordinates from ORCA-job surface_scan
  C   -5.71219507446110      0.99896393724573      1.99894296844041
  C   -5.03784943538440      0.22766797265262      0.98006063959343
  C   -3.96082281957179      0.33996887359350      0.27327404682817
  C   -3.09582417653220      1.56257295603580      0.60016148413211
  C   -3.90229312405947      2.62675130912780      1.33925485871055
  H   -2.70872796727998      1.95949537673483     -0.33877138082222
  H   -2.25317126893325      1.22645913227091      1.20994277526233
  C   -4.66991658894788      2.02484639307648      2.51293795473388
  H   -4.60985068734284      3.08254083802958      0.64431951128380
  H   -3.22899934801547      3.40721353755864      1.70065499163817
  H   -5.18876837215628      2.80278547958131      3.07429011927738
  H   -3.97418009447790      1.51542184968815      3.18116404290431
  H   -6.05844379486099      0.36523864779648      2.81771842762914
  H   -6.58323833361564      1.50097360143261      1.56831428126900
  C   -3.46161047859664     -0.58341453057229     -0.78583338877898
  H   -4.08199801324354     -1.47347939111329     -0.80866984483267
  H   -2.42600682933133     -0.85702731006393     -0.59065583678483
  H   -3.51671290298240     -0.09157968424154     -1.75542906193901
  O   -6.49334086057558     -1.48133654154646      0.13103284332944
  S   -6.87613321797762     -0.76135033167568     -1.16404879347864
  O   -8.46478690095980      0.83962121117393     -3.51744841118150
  O   -8.20621132678827     -0.07822737425331     -0.99123719865938
  C   -7.34033983259205     -2.25302973817632     -2.21790501337613
  H   -6.45619599751699     -2.86562900861002     -2.34755925485519
  H   -7.69231966591601     -1.86679662427775     -3.16761647501564
  H   -8.12364186390188     -2.80430353433558     -1.71047726729567
  C   -5.94219491450118      4.03207587095971     -3.10271349128484
  B   -5.70631168093092      1.41749725362531     -3.94490007344429
  H   -5.34910852654358      0.30266841001914     -3.75013650728787
  B   -7.54765493784375      3.51036144753329     -3.24059838929004
  H   -8.36558865852881      3.93454865752045     -2.49415826685766
  B   -5.12140901919400      4.13780988627612     -4.59425098040554
  H   -4.32371460166734      5.00170357711736     -4.72593256441266
  B   -6.29144705074165      2.43985232775431     -2.62243724380289
  H   -6.27718568889914      2.17866825105400     -1.46627835296985
  B   -6.83634799571175      4.54744731922559     -4.46546239568550
  H   -7.17372312617080      5.68171243779448     -4.51312719629802
  B   -7.78519932491499      3.14978551955508     -4.97957371834674
  H   -8.84929874708938      3.27265041366345     -5.49022155735235
  B   -4.99321486664190      2.46829708985969     -5.17617756714634
  H   -4.08646612260725      2.10281493704472     -5.84539607930411
  B   -6.26047565761125      3.55401221899151     -5.81093519544199
  H   -6.24451952808224      3.95939559060480     -6.92422003579541
  B   -4.78847545641971      2.83470109070372     -3.44848981044924
  H   -3.77293269736613      2.84508173501907     -2.84103737372954
  B   -7.47272612431306      1.81520677225714     -3.81919361072153
  B   -6.64648376643483      1.86596489091188     -5.41556722774552
  H   -6.90040753434323      1.05630800975420     -6.24593665102484
  H   -8.42278840112833      0.55050384955764     -2.58928652372631
  H   -5.71037659629280      4.76384539606430     -2.33517620548877
